 **********************************************
 **** Specfem 3-D Solver - MPI version f90 ****
 **********************************************
 
 Running Git package version of the code: v4.1.1-201-g9774906
 which is Git 97749062df8580b2da227f7660079220a20539cd
 dating 2025-05-13 20:17:44 +0200
 
 
 
 
 There are           80  MPI processes
 Processes are numbered from 0 to           79
 
 There is a total of           80  slices
 
  NDIM =            3
 
  NGLLX =            5
  NGLLY =            5
  NGLLZ =            5
 
 using single precision for the calculations
 
 smallest and largest possible floating-point numbers are:   1.1754944E-38
  3.4028235E+38
 
 velocity model:   tomo
 
 Reading mesh databases...
   reads binary mesh files: proc***_external_mesh.bin
   from directory         : OUTPUT_FILES/DATABASES_MPI
 
   simulation w/ acoustic    domain:  F
   simulation w/ elastic     domain:  T
   simulation w/ poroelastic domain:  F
 
   slice 0 has:
   number of elements acoustic   :           0
   number of elements elastic    :       74860
   number of elements poroelastic:           0
   done
 
   total acoustic elements    :           0
   total elastic elements     :     6105660
   total poroelastic elements :           0
 
 Mesh resolution:
 
 ********
 minimum and maximum number of elements
 and points in the CUBIT + SCOTCH mesh:
 
 NSPEC_global_min =        72508
 NSPEC_global_max =        79264
 NSPEC_global_max / NSPEC_global_min imbalance =    1.093176      = 
   9.317593      %
 NSPEC_global_sum =      6105660
 
 NGLOB_global_min =      4746969
 NGLOB_global_max =      5186165
 NGLOB_global_max / NGLOB_global_min imbalance =    1.092521      = 
   9.252135      %
 NGLOB_global_sum =    399007584
 
 If you have elements of a single type (all acoustic, all elastic, all poroelast
 ic, and without CPML)
 in the whole mesh, then there should be no significant imbalance in the above n
 umbers.
 Otherwise, it is normal to have imbalance in elements and points because the do
 main decomposer
 compensates for the different cost of different elements by partitioning them u
 nevenly among processes.
 ********
 
 
 ********
 Model: P   velocity min,max =    4147.000       8400.000    
 Model: S   velocity min,max =    2370.000       4665.000    
 
 Model: Poisson's ratio min,max =   0.2435901      0.2813841    
 ********
 
 *********************************************
 *** Verification of simulation parameters ***
 *********************************************
 
 *** Xmin and Xmax of the model =   -298332.5       388678.1    
 *** Ymin and Ymax of the model =   -254405.9       317886.4    
 *** Zmin and Zmax of the model =   -200000.0       1407.300    
 
 *** Max GLL point distance =    1669.480    
 *** Min GLL point distance =    333.8750    
 *** Max/min ratio =    5.000316    
 
 *** Max element size =    5105.091    
 *** Min element size =    1933.570    
 *** Max/min ratio =    2.640241    
 
 *** Minimum period resolved =    2.602657    
 *** Maximum suggested time step =   2.0500001E-02
 
 *** for DT :   2.000000000000000E-003
 *** Max stability for wave velocities =   4.7922127E-02
 
 Elapsed time for checking mesh resolution in seconds =   0.122733116149902     
 
 ******************************************
 There is a total of           80  slices
 ******************************************
 
 
 kd-tree:
   total data points:      2021220
   theoretical   number of nodes:      4042427
                tree memory size:    123.3651     MB
   actual        number of nodes:      4042439
                tree memory size:    123.3654     MB
   maximum depth   :           23
   creation timing :    1.134827     (s)
 
 
 sources:            1
 
 ********************
  locating sources
 ********************
 
 reading source information from ./DATA/CMTSOLUTION file
 
 no UTM projection
 
 
 source #            1
   source located in slice           73
                  in element        59136
                  in elastic domain
 
   using moment tensor source: 
     xi coordinate of source in that element:   0.451192486281157     
     eta coordinate of source in that element:  -0.728504365694208     
     gamma coordinate of source in that element:  -4.380021336173317E-002
 
   source time function:
     using external source time function
 
     time shift:   0.000000000000000E+000  seconds
 
   magnitude of the source:
        scalar moment M0 =   7.485624255865372E+024  dyne-cm
     moment magnitude Mw =    5.88281887321945     
 
   original (requested) position of the source:
 
             latitude:   -69627.0000000000     
            longitude:    293268.000000000     
 
                x:    293268.000000000     
                y:   -69627.0000000000     
            depth:    28.8400000000000       km
   topo elevation:    1.00000000000000     
 
   position of the source that will be used:
 
                x:    293268.000000000     
                y:   -69627.0000000000     
            depth:    28.8400000000000       km
                z:   -28839.0000000000     
 
   error in location of the source:   1.4999771E-11  m
 
 
 
 maximum error in location of the sources:   1.4999771E-11  m
 
 
 Elapsed time for detection of sources in seconds =   0.2056260    
 
 End of source detection - done
 
 External STF:
   simulation start time set to zero:   0.000000000000000E+000 s
 
 
 receivers:
 
   there are           85  stations in file ./DATA/STATIONS
   saving           85 
  stations inside the model in file ./DATA/STATIONS_FILTERED
   excluding            0  stations located outside the model
 
   Total number of receivers =           85
 
 
 ********************
  locating receivers
 ********************
 
 reading receiver information from ./DATA/STATIONS_FILTERED file
 
 
 station #            1     CAL    EPIC
      original latitude:   -69627.00    
      original longitude:    293268.0    
      original x:    293268.0    
      original y:   -69627.00    
      original depth:   0.0000000E+00  m
      horizontal distance:   1.4551916E-14
      target x, y, z:    293268.0      -69627.00       1.000000    
      closest estimate found:   1.1732129E-10  m away
 
      receiver located in slice           73
                       in element        75302
                       in elastic domain
      at coordinates: 
      xi    =   0.451192486281108     
      eta   =  -0.728504365694196     
      gamma =    1.00000000000000     
      rotation matrix: 
      nu1 =    1.000000      0.0000000E+00  0.0000000E+00
      nu2 =   0.0000000E+00   1.000000      0.0000000E+00
      nu3 =   0.0000000E+00  0.0000000E+00   1.000000    
      x:    293268.000000000     
      y:   -69627.0000000000     
      depth:   0.000000000000000E+000  m
      z:    1.00000000000000     
 
 
 
 station #            2     CAL    ACIS
      original latitude:    152292.0    
      original longitude:   -152776.0    
      original x:   -152776.0    
      original y:    152292.0    
      original depth:   0.0000000E+00  m
      horizontal distance:    498.2000    
      target x, y, z:   -152776.0       152292.0       225.0392    
      closest estimate found:   5.6843419E-14  m away
 
      receiver located in slice            2
                       in element        76615
                       in elastic domain
      at coordinates: 
      xi    =  -0.115779337273111     
      eta   =   0.953194582094483     
      gamma =    1.00141310271738     
      rotation matrix: 
      nu1 =    1.000000      0.0000000E+00  0.0000000E+00
      nu2 =   0.0000000E+00   1.000000      0.0000000E+00
      nu3 =   0.0000000E+00  0.0000000E+00   1.000000    
      x:   -152776.000000000     
      y:    152292.000000000     
      depth:   5.684341886080801E-014  m
      z:    225.039154052734     
 
 
 
 station #            3     CAL    AGAN
      original latitude:    34749.00    
      original longitude:   -155581.0    
      original x:   -155581.0    
      original y:    34749.00    
      original depth:   0.0000000E+00  m
      horizontal distance:    460.8251    
      target x, y, z:   -155581.0       34749.00       279.8517    
      closest estimate found:   2.9104330E-11  m away
 
      receiver located in slice           38
                       in element        78929
                       in elastic domain
      at coordinates: 
      xi    =  -0.483857351088565     
      eta   =  -0.455465954853141     
      gamma =    1.00030044111686     
      rotation matrix: 
      nu1 =    1.000000      0.0000000E+00  0.0000000E+00
      nu2 =   0.0000000E+00   1.000000      0.0000000E+00
      nu3 =   0.0000000E+00  0.0000000E+00   1.000000    
      x:   -155581.000000000     
      y:    34749.0000000000     
      depth:   1.705302565824240E-013  m
      z:    279.851715087890     
 
 
 
 station #            4     CAL    CARP
      original latitude:    128715.0    
      original longitude:   -145757.0    
      original x:   -145757.0    
      original y:    128715.0    
      original depth:   0.0000000E+00  m
      horizontal distance:    481.7494    
      target x, y, z:   -145757.0       128715.0       598.8177    
      closest estimate found:   1.1368684E-13  m away
 
      receiver located in slice            2
                       in element        76274
                       in elastic domain
      at coordinates: 
      xi    =  -0.190077629817237     
      eta   =  -0.986382601973565     
      gamma =    1.00188302779294     
      rotation matrix: 
      nu1 =    1.000000      0.0000000E+00  0.0000000E+00
      nu2 =   0.0000000E+00   1.000000      0.0000000E+00
      nu3 =   0.0000000E+00  0.0000000E+00   1.000000    
      x:   -145757.000000000     
      y:    128715.000000000     
      depth:   1.136868377216160E-013  m
      z:    598.817687988281     
 
 
 
 station #            5     CAL    CET2
      original latitude:    171612.0    
      original longitude:   -175811.0    
      original x:   -175811.0    
      original y:    171612.0    
      original depth:   0.0000000E+00  m
      horizontal distance:    527.4764    
      target x, y, z:   -175811.0       171612.0       367.9209    
      closest estimate found:   5.6843419E-14  m away
 
      receiver located in slice            2
                       in element        76930
                       in elastic domain
      at coordinates: 
      xi    =   0.437213505081899     
      eta   =  -0.707461463749830     
      gamma =   0.990978722713373     
      rotation matrix: 
      nu1 =    1.000000      0.0000000E+00  0.0000000E+00
      nu2 =   0.0000000E+00   1.000000      0.0000000E+00
      nu3 =   0.0000000E+00  0.0000000E+00   1.000000    
      x:   -175811.000000000     
      y:    171612.000000000     
      depth:   5.684341886080801E-014  m
      z:    367.920898437500     
 
 
 
 station #            6     CAL    CHCE
      original latitude:    77086.00    
      original longitude:   -137930.0    
      original x:   -137930.0    
      original y:    77086.00    
      original depth:   0.0000000E+00  m
      horizontal distance:    455.4738    
      target x, y, z:   -137930.0       77086.00       511.0053    
      closest estimate found:   1.1368684E-13  m away
 
      receiver located in slice            2
                       in element        75306
                       in elastic domain
      at coordinates: 
      xi    =   0.417765934993671     
      eta   =  -0.650148662041638     
      gamma =    1.00146769068329     
      rotation matrix: 
      nu1 =    1.000000      0.0000000E+00  0.0000000E+00
      nu2 =   0.0000000E+00   1.000000      0.0000000E+00
      nu3 =   0.0000000E+00  0.0000000E+00   1.000000    
      x:   -137930.000000000     
      y:    77086.0000000000     
      depth:   1.136868377216160E-013  m
      z:    511.005310058594     
 
 
 
 station #            7     CAL    CIRK
      original latitude:    154493.0    
      original longitude:   -80843.00    
      original x:   -80843.00    
      original y:    154493.0    
      original depth:   0.0000000E+00  m
      horizontal distance:    436.1064    
      target x, y, z:   -80843.00       154493.0       141.5938    
      closest estimate found:   5.6843419E-14  m away
 
      receiver located in slice           13
                       in element        78210
                       in elastic domain
      at coordinates: 
      xi    =   0.612740038188465     
      eta   =   0.814628344895925     
      gamma =   0.994743167998870     
      rotation matrix: 
      nu1 =    1.000000      0.0000000E+00  0.0000000E+00
      nu2 =   0.0000000E+00   1.000000      0.0000000E+00
      nu3 =   0.0000000E+00  0.0000000E+00   1.000000    
      x:   -80843.0000000000     
      y:    154493.000000000     
      depth:   5.684341886080801E-014  m
      z:    141.593795776367     
 
 
 
 station #            8     CAL    CMPN
      original latitude:    156855.0    
      original longitude:   -100718.0    
      original x:   -100718.0    
      original y:    156855.0    
      original depth:   0.0000000E+00  m
      horizontal distance:    454.4437    
      target x, y, z:   -100718.0       156855.0       609.7659    
      closest estimate found:   2.9104053E-11  m away
 
      receiver located in slice           19
                       in element        76689
                       in elastic domain
      at coordinates: 
      xi    =  -0.166473195441127     
      eta   =   0.812211349776351     
      gamma =    1.00109019544134     
      rotation matrix: 
      nu1 =    1.000000      0.0000000E+00  0.0000000E+00
      nu2 =   0.0000000E+00   1.000000      0.0000000E+00
      nu3 =   0.0000000E+00  0.0000000E+00   1.000000    
      x:   -100718.000000000     
      y:    156855.000000000     
      depth:   1.136868377216160E-013  m
      z:    609.765869140625     
 
 
 
 station #            9     CAL    CNDF
      original latitude:    2550.000    
      original longitude:   -188129.0    
      original x:   -188129.0    
      original y:    2550.000    
      original depth:   0.0000000E+00  m
      horizontal distance:    486.7778    
      target x, y, z:   -188129.0       2550.000       502.7891    
      closest estimate found:   1.1368684E-13  m away
 
      receiver located in slice           38
                       in element        78560
                       in elastic domain
      at coordinates: 
      xi    =   3.790472044691558E-002
      eta   =   0.313140417823386     
      gamma =    1.00025720633839     
      rotation matrix: 
      nu1 =    1.000000      0.0000000E+00  0.0000000E+00
      nu2 =   0.0000000E+00   1.000000      0.0000000E+00
      nu3 =   0.0000000E+00  0.0000000E+00   1.000000    
      x:   -188129.000000000     
      y:    2550.00000000000     
      depth:   1.136868377216160E-013  m
      z:    502.789062500000     
 
 
 
 station #           10     CAL    CO22
      original latitude:    166985.0    
      original longitude:   -145768.0    
      original x:   -145768.0    
      original y:    166985.0    
      original depth:   0.0000000E+00  m
      horizontal distance:    498.7362    
      target x, y, z:   -145768.0       166985.0       374.8359    
      closest estimate found:   4.1159073E-11  m away
 
      receiver located in slice            2
                       in element        76872
                       in elastic domain
      at coordinates: 
      xi    =  -0.199364187393235     
      eta   =  -0.620616976432270     
      gamma =   0.996921885073415     
      rotation matrix: 
      nu1 =    1.000000      0.0000000E+00  0.0000000E+00
      nu2 =   0.0000000E+00   1.000000      0.0000000E+00
      nu3 =   0.0000000E+00  0.0000000E+00   1.000000    
      x:   -145768.000000000     
      y:    166985.000000000     
      depth:   5.684341886080801E-014  m
      z:    374.835876464844     
 
 
 
 station #           11     CAL    CUP2
      original latitude:    154513.0    
      original longitude:   -125050.0    
      original x:   -125050.0    
      original y:    154513.0    
      original depth:   0.0000000E+00  m
      horizontal distance:    474.5826    
      target x, y, z:   -125050.0       154513.0       1252.649    
      closest estimate found:   6.5079733E-11  m away
 
      receiver located in slice            2
                       in element        76664
                       in elastic domain
      at coordinates: 
      xi    =  -0.708449580192175     
      eta   =   0.831542781631954     
      gamma =   0.995784904266834     
      rotation matrix: 
      nu1 =    1.000000      0.0000000E+00  0.0000000E+00
      nu2 =   0.0000000E+00   1.000000      0.0000000E+00
      nu3 =   0.0000000E+00  0.0000000E+00   1.000000    
      x:   -125050.000000000     
      y:    154513.000000000     
      depth:   4.547473508864641E-013  m
      z:    1252.64941406250     
 
 
 
 station #           12     CAL    CUTR
      original latitude:    113796.0    
      original longitude:   -80193.00    
      original x:   -80193.00    
      original y:    113796.0    
      original depth:   0.0000000E+00  m
      horizontal distance:    416.0735    
      target x, y, z:   -80193.00       113796.0       127.3224    
      closest estimate found:   1.4552477E-11  m away
 
      receiver located in slice           13
                       in element        77619
                       in elastic domain
      at coordinates: 
      xi    =  -0.838506490080203     
      eta   =   0.396288746981340     
      gamma =    1.00004721606456     
      rotation matrix: 
      nu1 =    1.000000      0.0000000E+00  0.0000000E+00
      nu2 =   0.0000000E+00   1.000000      0.0000000E+00
      nu3 =   0.0000000E+00  0.0000000E+00   1.000000    
      x:   -80193.0000000000     
      y:    113796.000000000     
      depth:   1.278976924368180E-013  m
      z:    127.322387695313     
 
 
 
 station #           13     CAL    FALC
      original latitude:    142894.0    
      original longitude:   -165668.0    
      original x:   -165668.0    
      original y:    142894.0    
      original depth:   0.0000000E+00  m
      horizontal distance:    505.7543    
      target x, y, z:   -165668.0       142894.0       308.7073    
      closest estimate found:   5.8207689E-11  m away
 
      receiver located in slice            2
                       in element        76496
                       in elastic domain
      at coordinates: 
      xi    =  -0.999683410721848     
      eta   =  -0.994899240171812     
      gamma =    1.00205923436475     
      rotation matrix: 
      nu1 =    1.000000      0.0000000E+00  0.0000000E+00
      nu2 =   0.0000000E+00   1.000000      0.0000000E+00
      nu3 =   0.0000000E+00  0.0000000E+00   1.000000    
      x:   -165668.000000000     
      y:    142894.000000000     
      depth:   5.684341886080801E-014  m
      z:    308.707305908203     
 
 
 
 station #           14     CAL    FERC
      original latitude:    51896.00    
      original longitude:   -163333.0    
      original x:   -163333.0    
      original y:    51896.00    
      original depth:   0.0000000E+00  m
      horizontal distance:    472.4958    
      target x, y, z:   -163333.0       51896.00       374.8741    
      closest estimate found:   5.8660674E-11  m away
 
      receiver located in slice            2
                       in element        74763
                       in elastic domain
      at coordinates: 
      xi    =   0.971612494723537     
      eta   =   4.612142014726789E-002
      gamma =   0.997773217484418     
      rotation matrix: 
      nu1 =    1.000000      0.0000000E+00  0.0000000E+00
      nu2 =   0.0000000E+00   1.000000      0.0000000E+00
      nu3 =   0.0000000E+00  0.0000000E+00   1.000000    
      x:   -163333.000000000     
      y:    51896.0000000000     
      depth:   5.684341886080801E-014  m
      z:    374.874145507812     
 
 
 
 station #           15     CAL    GERV
      original latitude:    145263.0    
      original longitude:   -152559.0    
      original x:   -152559.0    
      original y:    145263.0    
      original depth:   0.0000000E+00  m
      horizontal distance:    494.9135    
      target x, y, z:   -152559.0       145263.0       336.6776    
      closest estimate found:   0.0000000E+00  m away
 
      receiver located in slice            2
                       in element        76539
                       in elastic domain
      at coordinates: 
      xi    =   6.742032503165893E-002
      eta   =  -0.991384208787578     
      gamma =   0.998455660714292     
      rotation matrix: 
      nu1 =    1.000000      0.0000000E+00  0.0000000E+00
      nu2 =   0.0000000E+00   1.000000      0.0000000E+00
      nu3 =   0.0000000E+00  0.0000000E+00   1.000000    
      x:   -152559.000000000     
      y:    145263.000000000     
      depth:   0.000000000000000E+000  m
      z:    336.677551269531     
 
 
 
 station #           16     CAL    GIMI
      original latitude:    108407.0    
      original longitude:   -126703.0    
      original x:   -126703.0    
      original y:    108407.0    
      original depth:   0.0000000E+00  m
      horizontal distance:    456.1488    
      target x, y, z:   -126703.0       108407.0       553.8828    
      closest estimate found:   0.0000000E+00  m away
 
      receiver located in slice            2
                       in element        75902
                       in elastic domain
      at coordinates: 
      xi    =  -0.103973195441114     
      eta   =  -0.161305455254217     
      gamma =   0.997311630052279     
      rotation matrix: 
      nu1 =    1.000000      0.0000000E+00  0.0000000E+00
      nu2 =   0.0000000E+00   1.000000      0.0000000E+00
      nu3 =   0.0000000E+00  0.0000000E+00   1.000000    
      x:   -126703.000000000     
      y:    108407.000000000     
      depth:   0.000000000000000E+000  m
      z:    553.882751464844     
 
 
 
 station #           17     CAL    GIOM
      original latitude:    44540.00    
      original longitude:   -165069.0    
      original x:   -165069.0    
      original y:    44540.00    
      original depth:   0.0000000E+00  m
      horizontal distance:    472.3419    
      target x, y, z:   -165069.0       44540.00       494.6674    
      closest estimate found:   3.2539270E-11  m away
 
      receiver located in slice            2
                       in element        74646
                       in elastic domain
      at coordinates: 
      xi    =  -0.493984803714649     
      eta   =  -0.175006896278328     
      gamma =    1.00917527345948     
      rotation matrix: 
      nu1 =    1.000000      0.0000000E+00  0.0000000E+00
      nu2 =   0.0000000E+00   1.000000      0.0000000E+00
      nu3 =   0.0000000E+00  0.0000000E+00   1.000000    
      x:   -165069.000000000     
      y:    44540.0000000000     
      depth:   1.136868377216160E-013  m
      z:    494.667449951172     
 
 
 
 station #           18     CAL    GIOT
      original latitude:    47804.00    
      original longitude:   -179949.0    
      original x:   -179949.0    
      original y:    47804.00    
      original depth:   0.0000000E+00  m
      horizontal distance:    487.5699    
      target x, y, z:   -179949.0       47804.00       73.52485    
      closest estimate found:   2.8421709E-14  m away
 
      receiver located in slice           38
                       in element        79033
                       in elastic domain
      at coordinates: 
      xi    =   0.943765829463909     
      eta   =   0.585428501109180     
      gamma =   0.999207676500910     
      rotation matrix: 
      nu1 =    1.000000      0.0000000E+00  0.0000000E+00
      nu2 =   0.0000000E+00   1.000000      0.0000000E+00
      nu3 =   0.0000000E+00  0.0000000E+00   1.000000    
      x:   -179949.000000000     
      y:    47804.0000000000     
      depth:   2.842170943040401E-014  m
      z:    73.5248489379883     
 
 
 
 station #           19     CAL    LADO
      original latitude:    142976.0    
      original longitude:   -88025.00    
      original x:   -88025.00    
      original y:    142976.0    
      original depth:   0.0000000E+00  m
      horizontal distance:    436.5597    
      target x, y, z:   -88025.00       142976.0       247.2183    
      closest estimate found:   2.8421709E-14  m away
 
      receiver located in slice           13
                       in element        78090
                       in elastic domain
      at coordinates: 
      xi    =   0.549427501055299     
      eta   =  -0.925550049554014     
      gamma =   0.990837927428363     
      rotation matrix: 
      nu1 =    1.000000      0.0000000E+00  0.0000000E+00
      nu2 =   0.0000000E+00   1.000000      0.0000000E+00
      nu3 =   0.0000000E+00  0.0000000E+00   1.000000    
      x:   -88025.0000000000     
      y:    142976.000000000     
      depth:   2.842170943040401E-014  m
      z:    247.218322753906     
 
 
 
 station #           20     CAL    LARA
      original latitude:    143011.0    
      original longitude:   -151570.0    
      original x:   -151570.0    
      original y:    143011.0    
      original depth:   0.0000000E+00  m
      horizontal distance:    493.0474    
      target x, y, z:   -151570.0       143011.0       395.3622    
      closest estimate found:   2.9103886E-11  m away
 
      receiver located in slice            2
                       in element        76501
                       in elastic domain
      at coordinates: 
      xi    =   0.902371781342339     
      eta   =  -0.895949785265940     
      gamma =   0.999837557759888     
      rotation matrix: 
      nu1 =    1.000000      0.0000000E+00  0.0000000E+00
      nu2 =   0.0000000E+00   1.000000      0.0000000E+00
      nu3 =   0.0000000E+00  0.0000000E+00   1.000000    
      x:   -151570.000000000     
      y:    143011.000000000     
      depth:   5.684341886080801E-014  m
      z:    395.362182617188     
 
 
 
 station #           21     CAL    LATT
      original latitude:    161475.0    
      original longitude:   -152347.0    
      original x:   -152347.0    
      original y:    161475.0    
      original depth:   0.0000000E+00  m
      horizontal distance:    501.9770    
      target x, y, z:   -152347.0       161475.0       153.0987    
      closest estimate found:   2.8421709E-14  m away
 
      receiver located in slice            2
                       in element        76762
                       in elastic domain
      at coordinates: 
      xi    =   0.246398796960741     
      eta   =   0.719458209448287     
      gamma =   0.999664821279118     
      rotation matrix: 
      nu1 =    1.000000      0.0000000E+00  0.0000000E+00
      nu2 =   0.0000000E+00   1.000000      0.0000000E+00
      nu3 =   0.0000000E+00  0.0000000E+00   1.000000    
      x:   -152347.000000000     
      y:    161475.000000000     
      depth:   2.842170943040401E-014  m
      z:    153.098678588867     
 
 
 
 station #           22     CAL    LC22
      original latitude:    216812.0    
      original longitude:   -172816.0    
      original x:   -172816.0    
      original y:    216812.0    
      original depth:   0.0000000E+00  m
      horizontal distance:    547.0663    
      target x, y, z:   -172816.0       216812.0       479.7022    
      closest estimate found:   6.5078241E-11  m away
 
      receiver located in slice            6
                       in element        75110
                       in elastic domain
      at coordinates: 
      xi    =   0.965702828197552     
      eta   =  -0.480845721836790     
      gamma =   0.999988700831463     
      rotation matrix: 
      nu1 =    1.000000      0.0000000E+00  0.0000000E+00
      nu2 =   0.0000000E+00   1.000000      0.0000000E+00
      nu3 =   0.0000000E+00  0.0000000E+00   1.000000    
      x:   -172816.000000000     
      y:    216812.000000000     
      depth:   1.136868377216160E-013  m
      z:    479.702178955078     
 
 
 
 station #           23     CAL    MANE
      original latitude:    134664.0    
      original longitude:   -143560.0    
      original x:   -143560.0    
      original y:    134664.0    
      original depth:   0.0000000E+00  m
      horizontal distance:    482.2380    
      target x, y, z:   -143560.0       134664.0       738.1703    
      closest estimate found:   2.9104053E-11  m away
 
      receiver located in slice            2
                       in element        76353
                       in elastic domain
      at coordinates: 
      xi    =  -0.335294428028706     
      eta   =   4.481004294683664E-002
      gamma =   0.999709838514178     
      rotation matrix: 
      nu1 =    1.000000      0.0000000E+00  0.0000000E+00
      nu2 =   0.0000000E+00   1.000000      0.0000000E+00
      nu3 =   0.0000000E+00  0.0000000E+00   1.000000    
      x:   -143560.000000000     
      y:    134664.000000000     
      depth:   1.136868377216160E-013  m
      z:    738.170288085938     
 
 
 
 station #           24     CAL    MC32
      original latitude:    150304.0    
      original longitude:   -135572.0    
      original x:   -135572.0    
      original y:    150304.0    
      original depth:   0.0000000E+00  m
      horizontal distance:    481.9475    
      target x, y, z:   -135572.0       150304.0       1282.572    
      closest estimate found:   0.0000000E+00  m away
 
      receiver located in slice            2
                       in element        76622
                       in elastic domain
      at coordinates: 
      xi    =   0.408479316167160     
      eta   =  -0.728100429468133     
      gamma =    1.00099776180445     
      rotation matrix: 
      nu1 =    1.000000      0.0000000E+00  0.0000000E+00
      nu2 =   0.0000000E+00   1.000000      0.0000000E+00
      nu3 =   0.0000000E+00  0.0000000E+00   1.000000    
      x:   -135572.000000000     
      y:    150304.000000000     
      depth:   0.000000000000000E+000  m
      z:    1282.57189941406     
 
 
 
 station #           25     CAL    MCDA
      original latitude:    113999.0    
      original longitude:   -100400.0    
      original x:   -100400.0    
      original y:    113999.0    
      original depth:   0.0000000E+00  m
      horizontal distance:    434.3881    
      target x, y, z:   -100400.0       113999.0       168.2137    
      closest estimate found:   5.6843419E-14  m away
 
      receiver located in slice            2
                       in element        76001
                       in elastic domain
      at coordinates: 
      xi    =   0.101994512452499     
      eta   =   0.567969712686797     
      gamma =    1.00019896685487     
      rotation matrix: 
      nu1 =    1.000000      0.0000000E+00  0.0000000E+00
      nu2 =   0.0000000E+00   1.000000      0.0000000E+00
      nu3 =   0.0000000E+00  0.0000000E+00   1.000000    
      x:   -100400.000000000     
      y:    113999.000000000     
      depth:   5.684341886080801E-014  m
      z:    168.213699340820     
 
 
 
 station #           26     CAL    MMN1
      original latitude:    211297.0    
      original longitude:   -171978.0    
      original x:   -171978.0    
      original y:    211297.0    
      original depth:   0.0000000E+00  m
      horizontal distance:    543.4815    
      target x, y, z:   -171978.0       211297.0       794.2048    
      closest estimate found:   1.1368684E-13  m away
 
      receiver located in slice            6
                       in element        75014
                       in elastic domain
      at coordinates: 
      xi    =  -0.326825664837484     
      eta   =   0.854998348199537     
      gamma =    1.00169923844235     
      rotation matrix: 
      nu1 =    1.000000      0.0000000E+00  0.0000000E+00
      nu2 =   0.0000000E+00   1.000000      0.0000000E+00
      nu3 =   0.0000000E+00  0.0000000E+00   1.000000    
      x:   -171978.000000000     
      y:    211297.000000000     
      depth:   1.136868377216160E-013  m
      z:    794.204833984375     
 
 
 
 station #           27     CAL    MMN
      original latitude:    211730.0    
      original longitude:   -171841.0    
      original x:   -171841.0    
      original y:    211730.0    
      original depth:   0.0000000E+00  m
      horizontal distance:    543.5882    
      target x, y, z:   -171841.0       211730.0       775.8099    
      closest estimate found:   6.5078144E-11  m away
 
      receiver located in slice            6
                       in element        75047
                       in elastic domain
      at coordinates: 
      xi    =  -0.211165048543662     
      eta   =  -0.778804096465185     
      gamma =   0.999745327017445     
      rotation matrix: 
      nu1 =    1.000000      0.0000000E+00  0.0000000E+00
      nu2 =   0.0000000E+00   1.000000      0.0000000E+00
      nu3 =   0.0000000E+00  0.0000000E+00   1.000000    
      x:   -171841.000000000     
      y:    211730.000000000     
      depth:   0.000000000000000E+000  m
      z:    775.809936523438     
 
 
 
 station #           28     CAL    MMN9
      original latitude:    211734.0    
      original longitude:   -166734.0    
      original x:   -166734.0    
      original y:    211734.0    
      original depth:   0.0000000E+00  m
      horizontal distance:    539.2271    
      target x, y, z:   -166734.0       211734.0       1087.207    
      closest estimate found:   6.5079733E-11  m away
 
      receiver located in slice            6
                       in element        75049
                       in elastic domain
      at coordinates: 
      xi    =   0.100358801181958     
      eta   =  -0.775421209117976     
      gamma =    1.00510882079087     
      rotation matrix: 
      nu1 =    1.000000      0.0000000E+00  0.0000000E+00
      nu2 =   0.0000000E+00   1.000000      0.0000000E+00
      nu3 =   0.0000000E+00  0.0000000E+00   1.000000    
      x:   -166734.000000000     
      y:    211734.000000000     
      depth:   4.547473508864641E-013  m
      z:    1087.20715332031     
 
 
 
 station #           29     CAL    MOKA
      original latitude:    210875.0    
      original longitude:   -158160.0    
      original x:   -158160.0    
      original y:    210875.0    
      original depth:   0.0000000E+00  m
      horizontal distance:    531.4778    
      target x, y, z:   -158160.0       210875.0       1166.772    
      closest estimate found:   2.9104719E-11  m away
 
      receiver located in slice            6
                       in element        75020
                       in elastic domain
      at coordinates: 
      xi    =  -0.661143942591812     
      eta   =   0.498103733069035     
      gamma =   0.992059676898878     
      rotation matrix: 
      nu1 =    1.000000      0.0000000E+00  0.0000000E+00
      nu2 =   0.0000000E+00   1.000000      0.0000000E+00
      nu3 =   0.0000000E+00  0.0000000E+00   1.000000    
      x:   -158160.000000000     
      y:    210875.000000000     
      depth:   2.273736754432321E-013  m
      z:    1166.77172851563     
 
 
 
 station #           30     CAL    MUGA
      original latitude:    58751.00    
      original longitude:   -146261.0    
      original x:   -146261.0    
      original y:    58751.00    
      original depth:   0.0000000E+00  m
      horizontal distance:    457.8937    
      target x, y, z:   -146261.0       58751.00       1047.671    
      closest estimate found:   0.0000000E+00  m away
 
      receiver located in slice            2
                       in element        74918
                       in elastic domain
      at coordinates: 
      xi    =  -0.615570813299292     
      eta   =  -0.156458539808391     
      gamma =   0.991432297235463     
      rotation matrix: 
      nu1 =    1.000000      0.0000000E+00  0.0000000E+00
      nu2 =   0.0000000E+00   1.000000      0.0000000E+00
      nu3 =   0.0000000E+00  0.0000000E+00   1.000000    
      x:   -146261.000000000     
      y:    58751.0000000000     
      depth:   0.000000000000000E+000  m
      z:    1047.67114257812     
 
 
 
 station #           31     CAL    OPPI
      original latitude:    31569.00    
      original longitude:   -174074.0    
      original x:   -174074.0    
      original y:    31569.00    
      original depth:   0.0000000E+00  m
      horizontal distance:    478.1728    
      target x, y, z:   -174074.0       31569.00       692.1395    
      closest estimate found:   0.0000000E+00  m away
 
      receiver located in slice           38
                       in element        78869
                       in elastic domain
      at coordinates: 
      xi    =  -9.634867032500707E-002
      eta   =   0.855137458364408     
      gamma =   0.990681850461834     
      rotation matrix: 
      nu1 =    1.000000      0.0000000E+00  0.0000000E+00
      nu2 =   0.0000000E+00   1.000000      0.0000000E+00
      nu3 =   0.0000000E+00  0.0000000E+00   1.000000    
      x:   -174074.000000000     
      y:    31569.0000000000     
      depth:   0.000000000000000E+000  m
      z:    692.139465332031     
 
 
 
 station #           32     CAL    RICA
      original latitude:    71412.00    
      original longitude:   -186265.0    
      original x:   -186265.0    
      original y:    71412.00    
      original depth:   0.0000000E+00  m
      horizontal distance:    499.8439    
      target x, y, z:   -186265.0       71412.00       133.5571    
      closest estimate found:   8.5265128E-14  m away
 
      receiver located in slice            2
                       in element        75143
                       in elastic domain
      at coordinates: 
      xi    =  -0.388441853102577     
      eta   =   0.551225635943179     
      gamma =    1.00605083733809     
      rotation matrix: 
      nu1 =    1.000000      0.0000000E+00  0.0000000E+00
      nu2 =   0.0000000E+00   1.000000      0.0000000E+00
      nu3 =   0.0000000E+00  0.0000000E+00   1.000000    
      x:   -186265.000000000     
      y:    71412.0000000000     
      depth:   8.526512829121202E-014  m
      z:    133.557067871094     
 
 
 
 station #           33     CAL    ROI
      original latitude:    175389.0    
      original longitude:   -122914.0    
      original x:   -122914.0    
      original y:    175389.0    
      original depth:   0.0000000E+00  m
      horizontal distance:    482.9496    
      target x, y, z:   -122914.0       175389.0       379.9405    
      closest estimate found:   6.5078144E-11  m away
 
      receiver located in slice            2
                       in element        76988
                       in elastic domain
      at coordinates: 
      xi    =  -0.905168319966218     
      eta   =   0.486818632309205     
      gamma =    1.00386387869847     
      rotation matrix: 
      nu1 =    1.000000      0.0000000E+00  0.0000000E+00
      nu2 =   0.0000000E+00   1.000000      0.0000000E+00
      nu3 =   0.0000000E+00  0.0000000E+00   1.000000    
      x:   -122914.000000000     
      y:    175389.000000000     
      depth:   0.000000000000000E+000  m
      z:    379.940521240234     
 
 
 
 station #           34     CAL    SCAI
      original latitude:    60328.00    
      original longitude:   -129192.0    
      original x:   -129192.0    
      original y:    60328.00    
      original depth:   0.0000000E+00  m
      horizontal distance:    441.9963    
      target x, y, z:   -129192.0       60328.00       272.8375    
      closest estimate found:   2.0579594E-11  m away
 
      receiver located in slice            2
                       in element        74974
                       in elastic domain
      at coordinates: 
      xi    =  -0.205281764457577     
      eta   =  -0.822754910397945     
      gamma =    1.00141407808199     
      rotation matrix: 
      nu1 =    1.000000      0.0000000E+00  0.0000000E+00
      nu2 =   0.0000000E+00   1.000000      0.0000000E+00
      nu3 =   0.0000000E+00  0.0000000E+00   1.000000    
      x:   -129192.000000000     
      y:    60328.0000000000     
      depth:   5.684341886080801E-014  m
      z:    272.837524414062     
 
 
 
 station #           35     CAL    SCAN
      original latitude:    126716.0    
      original longitude:   -87483.00    
      original x:   -87483.00    
      original y:    126716.0    
      original depth:   0.0000000E+00  m
      horizontal distance:    428.3946    
      target x, y, z:   -87483.00       126716.0       116.1971    
      closest estimate found:   2.0579516E-11  m away
 
      receiver located in slice           13
                       in element        77853
                       in elastic domain
      at coordinates: 
      xi    =  -0.992995462220359     
      eta   =  -0.676986048847198     
      gamma =   0.999772616033664     
      rotation matrix: 
      nu1 =    1.000000      0.0000000E+00  0.0000000E+00
      nu2 =   0.0000000E+00   1.000000      0.0000000E+00
      nu3 =   0.0000000E+00  0.0000000E+00   1.000000    
      x:   -87483.0000000000     
      y:    126716.000000000     
      depth:   0.000000000000000E+000  m
      z:    116.197105407715     
 
 
 
 station #           36     CAL    SERA
      original latitude:    122406.0    
      original longitude:   -162125.0    
      original x:   -162125.0    
      original y:    122406.0    
      original depth:   0.0000000E+00  m
      horizontal distance:    494.2261    
      target x, y, z:   -162125.0       122406.0       196.3732    
      closest estimate found:   2.8421709E-14  m away
 
      receiver located in slice            2
                       in element        76145
                       in elastic domain
      at coordinates: 
      xi    =  -8.547910510764036E-003
      eta   =  -0.322043865068157     
      gamma =   0.993047879582823     
      rotation matrix: 
      nu1 =    1.000000      0.0000000E+00  0.0000000E+00
      nu2 =   0.0000000E+00   1.000000      0.0000000E+00
      nu3 =   0.0000000E+00  0.0000000E+00   1.000000    
      x:   -162125.000000000     
      y:    122406.000000000     
      depth:   2.842170943040401E-014  m
      z:    196.373168945312     
 
 
 
 station #           37     CAL    SIMB
      original latitude:    68658.00    
      original longitude:   -146142.0    
      original x:   -146142.0    
      original y:    68658.00    
      original depth:   0.0000000E+00  m
      horizontal distance:    460.6559    
      target x, y, z:   -146142.0       68658.00       795.6970    
      closest estimate found:   2.9104719E-11  m away
 
      receiver located in slice            2
                       in element        75112
                       in elastic domain
      at coordinates: 
      xi    =  -0.515107144977163     
      eta   =   0.222107697390155     
      gamma =   0.999177693595984     
      rotation matrix: 
      nu1 =    1.000000      0.0000000E+00  0.0000000E+00
      nu2 =   0.0000000E+00   1.000000      0.0000000E+00
      nu3 =   0.0000000E+00  0.0000000E+00   1.000000    
      x:   -146142.000000000     
      y:    68658.0000000000     
      depth:   2.273736754432321E-013  m
      z:    795.697021484375     
 
 
 
 station #           38     CAL    SMIN
      original latitude:    109446.0    
      original longitude:   -153481.0    
      original x:   -153481.0    
      original y:    109446.0    
      original depth:   0.0000000E+00  m
      horizontal distance:    481.3022    
      target x, y, z:   -153481.0       109446.0       394.5844    
      closest estimate found:   1.4552359E-11  m away
 
      receiver located in slice            2
                       in element        75891
                       in elastic domain
      at coordinates: 
      xi    =  -0.710967180244830     
      eta   =   0.717402436083362     
      gamma =    1.00455830223377     
      rotation matrix: 
      nu1 =    1.000000      0.0000000E+00  0.0000000E+00
      nu2 =   0.0000000E+00   1.000000      0.0000000E+00
      nu3 =   0.0000000E+00  0.0000000E+00   1.000000    
      x:   -153481.000000000     
      y:    109446.000000000     
      depth:   1.136868377216160E-013  m
      z:    394.584381103516     
 
 
 
 station #           39     CAL    SPDC
      original latitude:    60054.00    
      original longitude:   -162811.0    
      original x:   -162811.0    
      original y:    60054.00    
      original depth:   0.0000000E+00  m
      horizontal distance:    474.1574    
      target x, y, z:   -162811.0       60054.00       291.1361    
      closest estimate found:   0.0000000E+00  m away
 
      receiver located in slice            2
                       in element        74911
                       in elastic domain
      at coordinates: 
      xi    =  -0.587695230054877     
      eta   =   0.945517013544764     
      gamma =   0.993057724379775     
      rotation matrix: 
      nu1 =    1.000000      0.0000000E+00  0.0000000E+00
      nu2 =   0.0000000E+00   1.000000      0.0000000E+00
      nu3 =   0.0000000E+00  0.0000000E+00   1.000000    
      x:   -162811.000000000     
      y:    60054.0000000000     
      depth:   0.000000000000000E+000  m
      z:    291.136077880859     
 
 
 
 station #           40     CAL    SPNT
      original latitude:    129398.0    
      original longitude:   -127315.0    
      original x:   -127315.0    
      original y:    129398.0    
      original depth:   0.0000000E+00  m
      horizontal distance:    465.2967    
      target x, y, z:   -127315.0       129398.0       1315.493    
      closest estimate found:   1.4559019E-11  m away
 
      receiver located in slice            2
                       in element        76282
                       in elastic domain
      at coordinates: 
      xi    =  -0.620646897425075     
      eta   =  -0.408756495683857     
      gamma =   0.995089024222680     
      rotation matrix: 
      nu1 =    1.000000      0.0000000E+00  0.0000000E+00
      nu2 =   0.0000000E+00   1.000000      0.0000000E+00
      nu3 =   0.0000000E+00  0.0000000E+00   1.000000    
      x:   -127315.000000000     
      y:    129398.000000000     
      depth:   4.547473508864641E-013  m
      z:    1315.49304199219     
 
 
 
 station #           41     CAL    SPS2
      original latitude:    144904.0    
      original longitude:   -143343.0    
      original x:   -143343.0    
      original y:    144904.0    
      original depth:   0.0000000E+00  m
      horizontal distance:    486.4696    
      target x, y, z:   -143343.0       144904.0       718.1057    
      closest estimate found:   0.0000000E+00  m away
 
      receiver located in slice            2
                       in element        76505
                       in elastic domain
      at coordinates: 
      xi    =  -0.152094765723959     
      eta   =   0.705001651800475     
      gamma =    1.00026927836541     
      rotation matrix: 
      nu1 =    1.000000      0.0000000E+00  0.0000000E+00
      nu2 =   0.0000000E+00   1.000000      0.0000000E+00
      nu3 =   0.0000000E+00  0.0000000E+00   1.000000    
      x:   -143343.000000000     
      y:    144904.000000000     
      depth:   0.000000000000000E+000  m
      z:    718.105651855469     
 
 
 
 station #           42     CAL    UC01
      original latitude:    87661.00    
      original longitude:   -150263.0    
      original x:   -150263.0    
      original y:    87661.00    
      original depth:   0.0000000E+00  m
      horizontal distance:    470.5946    
      target x, y, z:   -150263.0       87661.00       262.3636    
      closest estimate found:    3.850326      m away
 
      receiver located in slice            2
                       in element        75488
                       in elastic domain
      at coordinates: 
      xi    =   5.790945546619583E-003
      eta   =   0.293357427675690     
      gamma =    1.01000000000000     
      rotation matrix: 
      nu1 =    1.000000      0.0000000E+00  0.0000000E+00
      nu2 =   0.0000000E+00   1.000000      0.0000000E+00
      nu3 =   0.0000000E+00  0.0000000E+00   1.000000    
      x:   -150263.000000000     
      y:    87661.0000000000     
      depth:    3.85032582618726       m
      z:    258.513230082016     
 
 
 
 station #           43     CAL    VBL2
      original latitude:    76120.00    
      original longitude:   -164568.0    
      original x:   -164568.0    
      original y:    76120.00    
      original depth:   0.0000000E+00  m
      horizontal distance:    480.4748    
      target x, y, z:   -164568.0       76120.00       329.9751    
      closest estimate found:   0.0000000E+00  m away
 
      receiver located in slice            2
                       in element        75248
                       in elastic domain
      at coordinates: 
      xi    =  -7.102152807091601E-002
      eta   =   0.532882500437721     
      gamma =   0.994788490432962     
      rotation matrix: 
      nu1 =    1.000000      0.0000000E+00  0.0000000E+00
      nu2 =   0.0000000E+00   1.000000      0.0000000E+00
      nu3 =   0.0000000E+00  0.0000000E+00   1.000000    
      x:   -164568.000000000     
      y:    76120.0000000000     
      depth:   0.000000000000000E+000  m
      z:    329.975097656250     
 
 
 
 station #           44     CAL    ALB1
      original latitude:    114533.0    
      original longitude:   -121423.0    
      original x:   -121423.0    
      original y:    114533.0    
      original depth:   0.0000000E+00  m
      horizontal distance:    453.7439    
      target x, y, z:   -121423.0       114533.0       672.7117    
      closest estimate found:    13.28907      m away
 
      receiver located in slice            2
                       in element        76035
                       in elastic domain
      at coordinates: 
      xi    =   0.353590650063319     
      eta   =  -0.980416189019455     
      gamma =    1.01000000000000     
      rotation matrix: 
      nu1 =    1.000000      0.0000000E+00  0.0000000E+00
      nu2 =   0.0000000E+00   1.000000      0.0000000E+00
      nu3 =   0.0000000E+00  0.0000000E+00   1.000000    
      x:   -121423.000000000     
      y:    114533.000000000     
      depth:    13.2890661835338       m
      z:    659.422603738341     
 
 
 
 station #           45     CAL    ATN
      original latitude:    20756.00    
      original longitude:   -222097.0    
      original x:   -222097.0    
      original y:    20756.00    
      original depth:   0.0000000E+00  m
      horizontal distance:    523.2305    
      target x, y, z:   -222097.0       20756.00       526.2800    
      closest estimate found:   0.0000000E+00  m away
 
      receiver located in slice           30
                       in element        74636
                       in elastic domain
      at coordinates: 
      xi    =  -0.639140987758525     
      eta   =  -0.289651948549634     
      gamma =    1.00000000000000     
      rotation matrix: 
      nu1 =    1.000000      0.0000000E+00  0.0000000E+00
      nu2 =   0.0000000E+00   1.000000      0.0000000E+00
      nu3 =   0.0000000E+00  0.0000000E+00   1.000000    
      x:   -222097.000000000     
      y:    20756.0000000000     
      depth:   0.000000000000000E+000  m
      z:    526.280029296875     
 
 
 
 station #           46     CAL    BRICA
      original latitude:    82157.00    
      original longitude:   -171328.0    
      original x:   -171328.0    
      original y:    82157.00    
      original depth:   0.0000000E+00  m
      horizontal distance:    488.7615    
      target x, y, z:   -171328.0       82157.00       48.54630    
      closest estimate found:   3.5527137E-14  m away
 
      receiver located in slice            2
                       in element        75386
                       in elastic domain
      at coordinates: 
      xi    =   0.221929084001686     
      eta   =  -0.361497725463254     
      gamma =   0.999201647959170     
      rotation matrix: 
      nu1 =    1.000000      0.0000000E+00  0.0000000E+00
      nu2 =   0.0000000E+00   1.000000      0.0000000E+00
      nu3 =   0.0000000E+00  0.0000000E+00   1.000000    
      x:   -171328.000000000     
      y:    82157.0000000000     
      depth:   3.552713678800501E-014  m
      z:    48.5463027954102     
 
 
 
 station #           47     CAL    BULG
      original latitude:    233856.0    
      original longitude:   -223659.0    
      original x:   -223659.0    
      original y:    233856.0    
      original depth:   0.0000000E+00  m
      horizontal distance:    599.4293    
      target x, y, z:   -223659.0       233856.0       256.1299    
      closest estimate found:   6.5078165E-11  m away
 
      receiver located in slice            7
                       in element        73616
                       in elastic domain
      at coordinates: 
      xi    =   4.215913887718793E-002
      eta   =  -6.636890407067016E-002
      gamma =    1.00268460362964     
      rotation matrix: 
      nu1 =    1.000000      0.0000000E+00  0.0000000E+00
      nu2 =   0.0000000E+00   1.000000      0.0000000E+00
      nu3 =   0.0000000E+00  0.0000000E+00   1.000000    
      x:   -223659.000000000     
      y:    233856.000000000     
      depth:   5.684341886080801E-014  m
      z:    256.129882812500     
 
 
 
 station #           48     CAL    CAR1
      original latitude:    140593.0    
      original longitude:   -154337.0    
      original x:   -154337.0    
      original y:    140593.0    
      original depth:   0.0000000E+00  m
      horizontal distance:    494.5126    
      target x, y, z:   -154337.0       140593.0       595.4338    
      closest estimate found:   2.9104053E-11  m away
 
      receiver located in slice            2
                       in element        76462
                       in elastic domain
      at coordinates: 
      xi    =   0.566367887506011     
      eta   =  -0.940905186653428     
      gamma =   0.995141916449563     
      rotation matrix: 
      nu1 =    1.000000      0.0000000E+00  0.0000000E+00
      nu2 =   0.0000000E+00   1.000000      0.0000000E+00
      nu3 =   0.0000000E+00  0.0000000E+00   1.000000    
      x:   -154337.000000000     
      y:    140593.000000000     
      depth:   1.136868377216160E-013  m
      z:    595.433837890625     
 
 
 
 station #           49     CAL    CEL
      original latitude:    30992.00    
      original longitude:   -184251.0    
      original x:   -184251.0    
      original y:    30992.00    
      original depth:   0.0000000E+00  m
      horizontal distance:    488.0047    
      target x, y, z:   -184251.0       30992.00       574.7117    
      closest estimate found:   0.0000000E+00  m away
 
      receiver located in slice           38
                       in element        78865
                       in elastic domain
      at coordinates: 
      xi    =  -0.688146369776254     
      eta   =   0.367157167598690     
      gamma =    1.00654265141678     
      rotation matrix: 
      nu1 =    1.000000      0.0000000E+00  0.0000000E+00
      nu2 =   0.0000000E+00   1.000000      0.0000000E+00
      nu3 =   0.0000000E+00  0.0000000E+00   1.000000    
      x:   -184251.000000000     
      y:    30992.0000000000     
      depth:   0.000000000000000E+000  m
      z:    574.711730957031     
 
 
 
 station #           50     CAL    CELI
      original latitude:    156705.0    
      original longitude:   -128408.0    
      original x:   -128408.0    
      original y:    156705.0    
      original depth:   0.0000000E+00  m
      horizontal distance:    478.5779    
      target x, y, z:   -128408.0       156705.0       1141.715    
      closest estimate found:   1.4551915E-11  m away
 
      receiver located in slice            2
                       in element        76699
                       in elastic domain
      at coordinates: 
      xi    =   0.456600886449980     
      eta   =   0.685353912428729     
      gamma =   0.999750303861923     
      rotation matrix: 
      nu1 =    1.000000      0.0000000E+00  0.0000000E+00
      nu2 =   0.0000000E+00   1.000000      0.0000000E+00
      nu3 =   0.0000000E+00  0.0000000E+00   1.000000    
      x:   -128408.000000000     
      y:    156705.000000000     
      depth:   0.000000000000000E+000  m
      z:    1141.71459960938     
 
 
 
 station #           51     CAL    CUC
      original latitude:    223500.0    
      original longitude:   -186542.0    
      original x:   -186542.0    
      original y:    223500.0    
      original depth:   0.0000000E+00  m
      horizontal distance:    562.2642    
      target x, y, z:   -186542.0       223500.0       530.2800    
      closest estimate found:   2.9104053E-11  m away
 
      receiver located in slice            6
                       in element        75200
                       in elastic domain
      at coordinates: 
      xi    =  -0.622295799915554     
      eta   =  -0.824670133268115     
      gamma =   0.992744391287716     
      rotation matrix: 
      nu1 =    1.000000      0.0000000E+00  0.0000000E+00
      nu2 =   0.0000000E+00   1.000000      0.0000000E+00
      nu3 =   0.0000000E+00  0.0000000E+00   1.000000    
      x:   -186542.000000000     
      y:    223500.000000000     
      depth:   1.136868377216160E-013  m
      z:    530.280029296875     
 
 
 
 station #           52     CAL    GIZZ
      original latitude:    110243.0    
      original longitude:   -155241.0    
      original x:   -155241.0    
      original y:    110243.0    
      original depth:   0.0000000E+00  m
      horizontal distance:    483.2324    
      target x, y, z:   -155241.0       110243.0       429.3797    
      closest estimate found:   0.0000000E+00  m away
 
      receiver located in slice            2
                       in element        75934
                       in elastic domain
      at coordinates: 
      xi    =  -0.196818298739588     
      eta   =  -0.608556326395772     
      gamma =   0.979337049579376     
      rotation matrix: 
      nu1 =    1.000000      0.0000000E+00  0.0000000E+00
      nu2 =   0.0000000E+00   1.000000      0.0000000E+00
      nu3 =   0.0000000E+00  0.0000000E+00   1.000000    
      x:   -155241.000000000     
      y:    110243.000000000     
      depth:   0.000000000000000E+000  m
      z:    429.379699707031     
 
 
 
 station #           53     CAL    GMB1
      original latitude:    21385.00    
      original longitude:   -191130.0    
      original x:   -191130.0    
      original y:    21385.00    
      original depth:   0.0000000E+00  m
      horizontal distance:    492.8738    
      target x, y, z:   -191130.0       21385.00       1096.987    
      closest estimate found:   5.8321681E-11  m away
 
      receiver located in slice           38
                       in element        78759
                       in elastic domain
      at coordinates: 
      xi    =  -0.495646897425051     
      eta   =   0.242307965490525     
      gamma =    1.00647963308422     
      rotation matrix: 
      nu1 =    1.000000      0.0000000E+00  0.0000000E+00
      nu2 =   0.0000000E+00   1.000000      0.0000000E+00
      nu3 =   0.0000000E+00  0.0000000E+00   1.000000    
      x:   -191130.000000000     
      y:    21385.0000000000     
      depth:   2.273736754432321E-013  m
      z:    1096.98681640625     
 
 
 
 station #           54     CAL    GRI
      original latitude:    92407.00    
      original longitude:   -137159.0    
      original x:   -137159.0    
      original y:    92407.00    
      original depth:   0.0000000E+00  m
      horizontal distance:    459.9157    
      target x, y, z:   -137159.0       92407.00       408.4362    
      closest estimate found:   0.0000000E+00  m away
 
      receiver located in slice            2
                       in element        75586
                       in elastic domain
      at coordinates: 
      xi    =  -0.931326509075559     
      eta   =   0.307148992401718     
      gamma =   0.997253247735745     
      rotation matrix: 
      nu1 =    1.000000      0.0000000E+00  0.0000000E+00
      nu2 =   0.0000000E+00   1.000000      0.0000000E+00
      nu3 =   0.0000000E+00  0.0000000E+00   1.000000    
      x:   -137159.000000000     
      y:    92407.0000000000     
      depth:   0.000000000000000E+000  m
      z:    408.436157226562     
 
 
 
 station #           55     CAL    GRIS
      original latitude:    195310.0    
      original longitude:   -183988.0    
      original x:   -183988.0    
      original y:    195310.0    
      original depth:   0.0000000E+00  m
      horizontal distance:    545.8616    
      target x, y, z:   -183988.0       195310.0       191.7563    
      closest estimate found:   1.1368684E-13  m away
 
      receiver located in slice            6
                       in element        74809
                       in elastic domain
      at coordinates: 
      xi    =  -0.466111756015173     
      eta   =  -0.665556656755877     
      gamma =    1.00504921746485     
      rotation matrix: 
      nu1 =    1.000000      0.0000000E+00  0.0000000E+00
      nu2 =   0.0000000E+00   1.000000      0.0000000E+00
      nu3 =   0.0000000E+00  0.0000000E+00   1.000000    
      x:   -183988.000000000     
      y:    195310.000000000     
      depth:   1.136868377216160E-013  m
      z:    191.756317138672     
 
 
 
 station #           56     CAL    JOPP
      original latitude:    69449.00    
      original longitude:   -184094.0    
      original x:   -184094.0    
      original y:    69449.00    
      original depth:   0.0000000E+00  m
      horizontal distance:    497.2088    
      target x, y, z:   -184094.0       69449.00       261.7663    
      closest estimate found:   2.9103886E-11  m away
 
      receiver located in slice            2
                       in element        75096
                       in elastic domain
      at coordinates: 
      xi    =  -0.555600991979740     
      eta   =   0.891073670300628     
      gamma =   0.986393793219829     
      rotation matrix: 
      nu1 =    1.000000      0.0000000E+00  0.0000000E+00
      nu2 =   0.0000000E+00   1.000000      0.0000000E+00
      nu3 =   0.0000000E+00  0.0000000E+00   1.000000    
      x:   -184094.000000000     
      y:    69449.0000000000     
      depth:   5.684341886080801E-014  m
      z:    261.766326904297     
 
 
 
 station #           57     CAL    MPAZ
      original latitude:   -3308.000    
      original longitude:   -175122.0    
      original x:   -175122.0    
      original y:   -3308.000    
      original depth:   0.0000000E+00  m
      horizontal distance:    473.0617    
      target x, y, z:   -175122.0      -3308.000       200.1823    
      closest estimate found:   5.8209437E-11  m away
 
      receiver located in slice           38
                       in element        78516
                       in elastic domain
      at coordinates: 
      xi    =  -0.981110173068830     
      eta   =  -0.641093592321213     
      gamma =   0.994298547682445     
      rotation matrix: 
      nu1 =    1.000000      0.0000000E+00  0.0000000E+00
      nu2 =   0.0000000E+00   1.000000      0.0000000E+00
      nu3 =   0.0000000E+00  0.0000000E+00   1.000000    
      x:   -175122.000000000     
      y:   -3308.00000000000     
      depth:   0.000000000000000E+000  m
      z:    200.182312011719     
 
 
 
 station #           58     CAL    MPNC
      original latitude:    19592.00    
      original longitude:   -231940.0    
      original x:   -231940.0    
      original y:    19592.00    
      original depth:   0.0000000E+00  m
      horizontal distance:    532.7321    
      target x, y, z:   -231940.0       19592.00       290.4174    
      closest estimate found:   5.6843419E-14  m away
 
      receiver located in slice           30
                       in element        74595
                       in elastic domain
      at coordinates: 
      xi    =  -0.948976361333896     
      eta   =   0.725927339129487     
      gamma =   0.999398038787341     
      rotation matrix: 
      nu1 =    1.000000      0.0000000E+00  0.0000000E+00
      nu2 =   0.0000000E+00   1.000000      0.0000000E+00
      nu3 =   0.0000000E+00  0.0000000E+00   1.000000    
      x:   -231940.000000000     
      y:    19592.0000000000     
      depth:   5.684341886080801E-014  m
      z:    290.417358398438     
 
 
 
 station #           59     CAL    MSCL
      original latitude:    28066.00    
      original longitude:   -193414.0    
      original x:   -193414.0    
      original y:    28066.00    
      original depth:   0.0000000E+00  m
      horizontal distance:    496.3903    
      target x, y, z:   -193414.0       28066.00       684.5004    
      closest estimate found:   0.0000000E+00  m away
 
      receiver located in slice           38
                       in element        78835
                       in elastic domain
      at coordinates: 
      xi    =  -0.423886661038390     
      eta   =  -0.107423368720467     
      gamma =    1.00550750509209     
      rotation matrix: 
      nu1 =    1.000000      0.0000000E+00  0.0000000E+00
      nu2 =   0.0000000E+00   1.000000      0.0000000E+00
      nu3 =   0.0000000E+00  0.0000000E+00   1.000000    
      x:   -193414.000000000     
      y:    28066.0000000000     
      depth:   0.000000000000000E+000  m
      z:    684.500427246094     
 
 
 
 station #           60     CAL    MSRU
      original latitude:    32234.00    
      original longitude:   -217966.0    
      original x:   -217966.0    
      original y:    32234.00    
      original depth:   0.0000000E+00  m
      horizontal distance:    521.2829    
      target x, y, z:   -217966.0       32234.00       245.3960    
      closest estimate found:    2.117147      m away
 
      receiver located in slice           30
                       in element        74822
                       in elastic domain
      at coordinates: 
      xi    =   0.848394309345232     
      eta   =  -0.582457189390798     
      gamma =    1.01000000000000     
      rotation matrix: 
      nu1 =    1.000000      0.0000000E+00  0.0000000E+00
      nu2 =   0.0000000E+00   1.000000      0.0000000E+00
      nu3 =   0.0000000E+00  0.0000000E+00   1.000000    
      x:   -217966.000000000     
      y:    32234.0000000000     
      depth:    2.11714663974578       m
      z:    243.278849454004     
 
 
 
 station #           61     CAL    MTTG
      original latitude:    2868.000    
      original longitude:   -201931.0    
      original x:   -201931.0    
      original y:    2868.000    
      original depth:   0.0000000E+00  m
      horizontal distance:    500.4774    
      target x, y, z:   -201931.0       2868.000       395.8660    
      closest estimate found:   2.9107383E-11  m away
 
      receiver located in slice           38
                       in element        78554
                       in elastic domain
      at coordinates: 
      xi    =   0.385737653018128     
      eta   =   0.582079260870774     
      gamma =    1.00731922817672     
      rotation matrix: 
      nu1 =    1.000000      0.0000000E+00  0.0000000E+00
      nu2 =   0.0000000E+00   1.000000      0.0000000E+00
      nu3 =   0.0000000E+00  0.0000000E+00   1.000000    
      x:   -201931.000000000     
      y:    2868.00000000000     
      depth:   0.000000000000000E+000  m
      z:    395.865997314453     
 
 
 
 station #           62     CAL    NICCA
      original latitude:    63813.00    
      original longitude:   -179605.0    
      original x:   -179605.0    
      original y:    63813.00    
      original depth:   0.0000000E+00  m
      horizontal distance:    491.3401    
      target x, y, z:   -179605.0       63813.00       179.4174    
      closest estimate found:   7.2768458E-12  m away
 
      receiver located in slice            2
                       in element        75002
                       in elastic domain
      at coordinates: 
      xi    =  -0.765816272688900     
      eta   =   0.124586844091761     
      gamma =    1.00440845554822     
      rotation matrix: 
      nu1 =    1.000000      0.0000000E+00  0.0000000E+00
      nu2 =   0.0000000E+00   1.000000      0.0000000E+00
      nu3 =   0.0000000E+00  0.0000000E+00   1.000000    
      x:   -179605.000000000     
      y:    63813.0000000000     
      depth:   1.136868377216160E-013  m
      z:    179.417419433594     
 
 
 
 station #           63     CAL    ORI
      original latitude:    228746.0    
      original longitude:   -132224.0    
      original x:   -132224.0    
      original y:    228746.0    
      original depth:   0.0000000E+00  m
      horizontal distance:    519.6825    
      target x, y, z:   -132224.0       228746.0       461.8066    
      closest estimate found:   2.9104053E-11  m away
 
      receiver located in slice            6
                       in element        75283
                       in elastic domain
      at coordinates: 
      xi    =  -0.765011608273535     
      eta   =  -0.388001321440355     
      gamma =    1.00061236822936     
      rotation matrix: 
      nu1 =    1.000000      0.0000000E+00  0.0000000E+00
      nu2 =   0.0000000E+00   1.000000      0.0000000E+00
      nu3 =   0.0000000E+00  0.0000000E+00   1.000000    
      x:   -132224.000000000     
      y:    228746.000000000     
      depth:   1.136868377216160E-013  m
      z:    461.806640625000     
 
 
 
 station #           64     CAL    PIPA
      original latitude:    165471.0    
      original longitude:   -101856.0    
      original x:   -101856.0    
      original y:    165471.0    
      original depth:   0.0000000E+00  m
      horizontal distance:    459.7761    
      target x, y, z:   -101856.0       165471.0       332.3011    
      closest estimate found:   5.6843419E-14  m away
 
      receiver located in slice           19
                       in element        76801
                       in elastic domain
      at coordinates: 
      xi    =   0.872784294585352     
      eta   =   9.896266930954740E-002
      gamma =   0.995969435360607     
      rotation matrix: 
      nu1 =    1.000000      0.0000000E+00  0.0000000E+00
      nu2 =   0.0000000E+00   1.000000      0.0000000E+00
      nu3 =   0.0000000E+00  0.0000000E+00   1.000000    
      x:   -101856.000000000     
      y:    165471.000000000     
      depth:   5.684341886080801E-014  m
      z:    332.301055908203     
 
 
 
 station #           65     CAL    PLAC
      original latitude:    51024.00    
      original longitude:   -136274.0    
      original x:   -136274.0    
      original y:    51024.00    
      original depth:   0.0000000E+00  m
      horizontal distance:    446.1648    
      target x, y, z:   -136274.0       51024.00       478.9118    
      closest estimate found:   5.6843419E-14  m away
 
      receiver located in slice            2
                       in element        74775
                       in elastic domain
      at coordinates: 
      xi    =  -0.184175812579148     
      eta   =  -0.691345585247491     
      gamma =    1.00131852374972     
      rotation matrix: 
      nu1 =    1.000000      0.0000000E+00  0.0000000E+00
      nu2 =   0.0000000E+00   1.000000      0.0000000E+00
      nu3 =   0.0000000E+00  0.0000000E+00   1.000000    
      x:   -136274.000000000     
      y:    51024.0000000000     
      depth:   5.684341886080801E-014  m
      z:    478.911804199219     
 
 
 
 station #           66     CAL    SALB
      original latitude:    209612.0    
      original longitude:   -141487.0    
      original x:   -141487.0    
      original y:    209612.0    
      original depth:   0.0000000E+00  m
      horizontal distance:    516.7072    
      target x, y, z:   -141487.0       209612.0       900.9636    
      closest estimate found:   8.2318374E-11  m away
 
      receiver located in slice            6
                       in element        75027
                       in elastic domain
      at coordinates: 
      xi    =  -0.585188898269289     
      eta   =  -0.570042946812039     
      gamma =   0.995560130034618     
      rotation matrix: 
      nu1 =    1.000000      0.0000000E+00  0.0000000E+00
      nu2 =   0.0000000E+00   1.000000      0.0000000E+00
      nu3 =   0.0000000E+00  0.0000000E+00   1.000000    
      x:   -141487.000000000     
      y:    209612.000000000     
      depth:   2.273736754432321E-013  m
      z:    900.963562011719     
 
 
 
 station #           67     CAL    SDT2
      original latitude:    204191.0    
      original longitude:   -183883.0    
      original x:   -183883.0    
      original y:    204191.0    
      original depth:   0.0000000E+00  m
      horizontal distance:    550.1358    
      target x, y, z:   -183883.0       204191.0       254.2840    
      closest estimate found:   0.0000000E+00  m away
 
      receiver located in slice            6
                       in element        74910
                       in elastic domain
      at coordinates: 
      xi    =  -0.377466758125793     
      eta   =   0.845298975883713     
      gamma =    1.00021366859093     
      rotation matrix: 
      nu1 =    1.000000      0.0000000E+00  0.0000000E+00
      nu2 =   0.0000000E+00   1.000000      0.0000000E+00
      nu3 =   0.0000000E+00  0.0000000E+00   1.000000    
      x:   -183883.000000000     
      y:    204191.000000000     
      depth:   0.000000000000000E+000  m
      z:    254.283966064453     
 
 
 
 station #           68     CAL    SELL
      original latitude:    109969.0    
      original longitude:   -118848.0    
      original x:   -118848.0    
      original y:    109969.0    
      original depth:   0.0000000E+00  m
      horizontal distance:    449.5490    
      target x, y, z:   -118848.0       109969.0       402.9990    
      closest estimate found:   0.0000000E+00  m away
 
      receiver located in slice            2
                       in element        75949
                       in elastic domain
      at coordinates: 
      xi    =   0.527503693541580     
      eta   =  -0.840284109679551     
      gamma =   0.996625370262114     
      rotation matrix: 
      nu1 =    1.000000      0.0000000E+00  0.0000000E+00
      nu2 =   0.0000000E+00   1.000000      0.0000000E+00
      nu3 =   0.0000000E+00  0.0000000E+00   1.000000    
      x:   -118848.000000000     
      y:    109969.000000000     
      depth:   0.000000000000000E+000  m
      z:    402.998962402344     
 
 
 
 station #           69     CAL    SERS
      original latitude:    115762.0    
      original longitude:   -113507.0    
      original x:   -113507.0    
      original y:    115762.0    
      original depth:   0.0000000E+00  m
      horizontal distance:    447.0291    
      target x, y, z:   -113507.0       115762.0       1075.604    
      closest estimate found:   0.0000000E+00  m away
 
      receiver located in slice            2
                       in element        76039
                       in elastic domain
      at coordinates: 
      xi    =  -0.963420867781565     
      eta   =   5.897938215853852E-002
      gamma =    1.00526272858834     
      rotation matrix: 
      nu1 =    1.000000      0.0000000E+00  0.0000000E+00
      nu2 =   0.0000000E+00   1.000000      0.0000000E+00
      nu3 =   0.0000000E+00  0.0000000E+00   1.000000    
      x:   -113507.000000000     
      y:    115762.000000000     
      depth:   0.000000000000000E+000  m
      z:    1075.60400390625     
 
 
 
 station #           70     CAL    SICLA
      original latitude:    30923.00    
      original longitude:   -199953.0    
      original x:   -199953.0    
      original y:    30923.00    
      original depth:   0.0000000E+00  m
      horizontal distance:    503.3659    
      target x, y, z:   -199953.0       30923.00       103.6074    
      closest estimate found:   2.9103830E-11  m away
 
      receiver located in slice           38
                       in element        78858
                       in elastic domain
      at coordinates: 
      xi    =   5.564056563946120E-002
      eta   =   0.308802505444740     
      gamma =    1.00238136901339     
      rotation matrix: 
      nu1 =    1.000000      0.0000000E+00  0.0000000E+00
      nu2 =   0.0000000E+00   1.000000      0.0000000E+00
      nu3 =   0.0000000E+00  0.0000000E+00   1.000000    
      x:   -199953.000000000     
      y:    30923.0000000000     
      depth:   0.000000000000000E+000  m
      z:    103.607398986816     
 
 
 
 station #           71     CAL    SOI
      original latitude:    9930.000    
      original longitude:   -170665.0    
      original x:   -170665.0    
      original y:    9930.000    
      original depth:   0.0000000E+00  m
      horizontal distance:    470.7050    
      target x, y, z:   -170665.0       9930.000       416.8929    
      closest estimate found:   0.0000000E+00  m away
 
      receiver located in slice           38
                       in element        78642
                       in elastic domain
      at coordinates: 
      xi    =   0.781658927817646     
      eta   =   0.554565758581168     
      gamma =    1.00617098752219     
      rotation matrix: 
      nu1 =    1.000000      0.0000000E+00  0.0000000E+00
      nu2 =   0.0000000E+00   1.000000      0.0000000E+00
      nu3 =   0.0000000E+00  0.0000000E+00   1.000000    
      x:   -170665.000000000     
      y:    9930.00000000000     
      depth:   0.000000000000000E+000  m
      z:    416.892883300781     
 
 
 
 station #           72     CAL    TDS
      original latitude:    185526.0    
      original longitude:   -142633.0    
      original x:   -142633.0    
      original y:    185526.0    
      original depth:   0.0000000E+00  m
      horizontal distance:    505.0869    
      target x, y, z:   -142633.0       185526.0       151.5185    
      closest estimate found:   4.1159121E-11  m away
 
      receiver located in slice            6
                       in element        74688
                       in elastic domain
      at coordinates: 
      xi    =   0.447314267623496     
      eta   =  -0.940099108027775     
      gamma =   0.999710949582853     
      rotation matrix: 
      nu1 =    1.000000      0.0000000E+00  0.0000000E+00
      nu2 =   0.0000000E+00   1.000000      0.0000000E+00
      nu3 =   0.0000000E+00  0.0000000E+00   1.000000    
      x:   -142633.000000000     
      y:    185526.000000000     
      depth:   8.526512829121202E-014  m
      z:    151.518539428711     
 
 
 
 station #           73     CAL    TIP
      original latitude:    131604.0    
      original longitude:   -107259.0    
      original x:   -107259.0    
      original y:    131604.0    
      original depth:   0.0000000E+00  m
      horizontal distance:    448.2363    
      target x, y, z:   -107259.0       131604.0       771.7581    
      closest estimate found:   2.9103830E-11  m away
 
      receiver located in slice            2
                       in element        76329
                       in elastic domain
      at coordinates: 
      xi    =   0.311372150696484     
      eta   =  -0.543098777667646     
      gamma =    1.00612681878655     
      rotation matrix: 
      nu1 =    1.000000      0.0000000E+00  0.0000000E+00
      nu2 =   0.0000000E+00   1.000000      0.0000000E+00
[...]
 
 Time step #       107000
 Time:    213.9980      seconds
 Elapsed time in seconds =    103042.935672998     
 Elapsed time in hh:mm:ss =     28 h 37 m 22 s
 Mean elapsed time per time step in seconds =   0.9630181    
 Max norm displacement vector U in all slices (m) =   5.6490157E-04
 Time steps done =       107000  out of       120000
 Time steps remaining =        13000
 Estimated remaining time in seconds =    12519.24    
 Estimated remaining time in hh:mm:ss =      3 h 28 m 39 s
 Estimated total run time in seconds =    115562.2    
 Estimated total run time in hh:mm:ss =     32 h 06 m 02 s
 We have done    89.16666     % of that
 The run will finish approximately on (in local time): Mon Jun 16, 2025 23:08
 
 Time step #       107500
 Time:    214.9980      seconds
 Elapsed time in seconds =    103525.645349979     
 Elapsed time in hh:mm:ss =     28 h 45 m 25 s
 Mean elapsed time per time step in seconds =   0.9630293    
 Max norm displacement vector U in all slices (m) =   5.7097391E-04
 Time steps done =       107500  out of       120000
 Time steps remaining =        12500
 Estimated remaining time in seconds =    12037.87    
 Estimated remaining time in hh:mm:ss =      3 h 20 m 37 s
 Estimated total run time in seconds =    115563.5    
 Estimated total run time in hh:mm:ss =     32 h 06 m 03 s
 We have done    89.58334     % of that
 The run will finish approximately on (in local time): Mon Jun 16, 2025 23:08
 
 Time step #       108000
 Time:    215.9980      seconds
 Elapsed time in seconds =    104007.766258001     
 Elapsed time in hh:mm:ss =     28 h 53 m 27 s
 Mean elapsed time per time step in seconds =   0.9630349    
 Max norm displacement vector U in all slices (m) =   5.5421388E-04
 Time steps done =       108000  out of       120000
 Time steps remaining =        12000
 Estimated remaining time in seconds =    11556.42    
 Estimated remaining time in hh:mm:ss =      3 h 12 m 36 s
 Estimated total run time in seconds =    115564.2    
 Estimated total run time in hh:mm:ss =     32 h 06 m 04 s
 We have done    90.00000     % of that
 The run will finish approximately on (in local time): Mon Jun 16, 2025 23:08
 
 Time step #       108500
 Time:    216.9980      seconds
 Elapsed time in seconds =    104490.461796999     
 Elapsed time in hh:mm:ss =     29 h 01 m 30 s
 Mean elapsed time per time step in seconds =   0.9630457    
 Max norm displacement vector U in all slices (m) =   5.3450791E-04
 Time steps done =       108500  out of       120000
 Time steps remaining =        11500
 Estimated remaining time in seconds =    11075.03    
 Estimated remaining time in hh:mm:ss =      3 h 04 m 35 s
 Estimated total run time in seconds =    115565.5    
 Estimated total run time in hh:mm:ss =     32 h 06 m 05 s
 We have done    90.41666     % of that
 The run will finish approximately on (in local time): Mon Jun 16, 2025 23:08
 
 Time step #       109000
 Time:    217.9980      seconds
 Elapsed time in seconds =    104972.398670912     
 Elapsed time in hh:mm:ss =     29 h 09 m 32 s
 Mean elapsed time per time step in seconds =   0.9630495    
 Max norm displacement vector U in all slices (m) =   5.0394965E-04
 Time steps done =       109000  out of       120000
 Time steps remaining =        11000
 Estimated remaining time in seconds =    10593.54    
 Estimated remaining time in hh:mm:ss =      2 h 56 m 33 s
 Estimated total run time in seconds =    115565.9    
 Estimated total run time in hh:mm:ss =     32 h 06 m 05 s
 We have done    90.83334     % of that
 The run will finish approximately on (in local time): Mon Jun 16, 2025 23:08
 
 Time step #       109500
 Time:    218.9980      seconds
 Elapsed time in seconds =    105454.320486784     
 Elapsed time in hh:mm:ss =     29 h 17 m 34 s
 Mean elapsed time per time step in seconds =   0.9630532    
 Max norm displacement vector U in all slices (m) =   4.7459232E-04
 Time steps done =       109500  out of       120000
 Time steps remaining =        10500
 Estimated remaining time in seconds =    10112.06    
 Estimated remaining time in hh:mm:ss =      2 h 48 m 32 s
 Estimated total run time in seconds =    115566.4    
 Estimated total run time in hh:mm:ss =     32 h 06 m 06 s
 We have done    91.25000     % of that
 The run will finish approximately on (in local time): Mon Jun 16, 2025 23:08
 
 Time step #       110000
 Time:    219.9980      seconds
 Elapsed time in seconds =    105936.706691980     
 Elapsed time in hh:mm:ss =     29 h 25 m 36 s
 Mean elapsed time per time step in seconds =   0.9630610    
 Max norm displacement vector U in all slices (m) =   4.4175875E-04
 Time steps done =       110000  out of       120000
 Time steps remaining =        10000
 Estimated remaining time in seconds =    9630.609    
 Estimated remaining time in hh:mm:ss =      2 h 40 m 30 s
 Estimated total run time in seconds =    115567.3    
 Estimated total run time in hh:mm:ss =     32 h 06 m 07 s
 We have done    91.66666     % of that
 The run will finish approximately on (in local time): Mon Jun 16, 2025 23:08
 
 Writing the seismograms
 Total number of time steps written:       110000
 Writing the seismograms in parallel took    4.762172      seconds
 
 Time step #       110500
 Time:    220.9980      seconds
 Elapsed time in seconds =    106422.659533978     
 Elapsed time in hh:mm:ss =     29 h 33 m 42 s
 Mean elapsed time per time step in seconds =   0.9631010    
 Max norm displacement vector U in all slices (m) =   4.1650361E-04
 Time steps done =       110500  out of       120000
 Time steps remaining =         9500
 Estimated remaining time in seconds =    9149.459    
 Estimated remaining time in hh:mm:ss =      2 h 32 m 29 s
 Estimated total run time in seconds =    115572.1    
 Estimated total run time in hh:mm:ss =     32 h 06 m 12 s
 We have done    92.08334     % of that
 The run will finish approximately on (in local time): Mon Jun 16, 2025 23:07
 
 Time step #       111000
 Time:    221.9980      seconds
 Elapsed time in seconds =    106902.733152866     
 Elapsed time in hh:mm:ss =     29 h 41 m 42 s
 Mean elapsed time per time step in seconds =   0.9630877    
 Max norm displacement vector U in all slices (m) =   4.0892215E-04
 Time steps done =       111000  out of       120000
 Time steps remaining =         9000
 Estimated remaining time in seconds =    8667.789    
 Estimated remaining time in hh:mm:ss =      2 h 24 m 27 s
 Estimated total run time in seconds =    115570.5    
 Estimated total run time in hh:mm:ss =     32 h 06 m 10 s
 We have done    92.50000     % of that
 The run will finish approximately on (in local time): Mon Jun 16, 2025 23:07
 
 Time step #       111500
 Time:    222.9980      seconds
 Elapsed time in seconds =    107384.175766945     
 Elapsed time in hh:mm:ss =     29 h 49 m 44 s
 Mean elapsed time per time step in seconds =   0.9630868    
 Max norm displacement vector U in all slices (m) =   3.9127556E-04
 Time steps done =       111500  out of       120000
 Time steps remaining =         8500
 Estimated remaining time in seconds =    8186.238    
 Estimated remaining time in hh:mm:ss =      2 h 16 m 26 s
 Estimated total run time in seconds =    115570.4    
 Estimated total run time in hh:mm:ss =     32 h 06 m 10 s
 We have done    92.91666     % of that
 The run will finish approximately on (in local time): Mon Jun 16, 2025 23:07
 
 Time step #       112000
 Time:    223.9980      seconds
 Elapsed time in seconds =    107866.673442841     
 Elapsed time in hh:mm:ss =     29 h 57 m 46 s
 Mean elapsed time per time step in seconds =   0.9630953    
 Max norm displacement vector U in all slices (m) =   3.7646064E-04
 Time steps done =       112000  out of       120000
 Time steps remaining =         8000
 Estimated remaining time in seconds =    7704.762    
 Estimated remaining time in hh:mm:ss =      2 h 08 m 24 s
 Estimated total run time in seconds =    115571.4    
 Estimated total run time in hh:mm:ss =     32 h 06 m 11 s
 We have done    93.33334     % of that
 The run will finish approximately on (in local time): Mon Jun 16, 2025 23:07
 
 Time step #       112500
 Time:    224.9980      seconds
 Elapsed time in seconds =    108348.212913990     
 Elapsed time in hh:mm:ss =     30 h 05 m 48 s
 Mean elapsed time per time step in seconds =   0.9630952    
 Max norm displacement vector U in all slices (m) =   3.6634566E-04
 Time steps done =       112500  out of       120000
 Time steps remaining =         7500
 Estimated remaining time in seconds =    7223.214    
 Estimated remaining time in hh:mm:ss =      2 h 00 m 23 s
 Estimated total run time in seconds =    115571.4    
 Estimated total run time in hh:mm:ss =     32 h 06 m 11 s
 We have done    93.75000     % of that
 The run will finish approximately on (in local time): Mon Jun 16, 2025 23:07
 
 Time step #       113000
 Time:    225.9980      seconds
 Elapsed time in seconds =    108829.927270889     
 Elapsed time in hh:mm:ss =     30 h 13 m 49 s
 Mean elapsed time per time step in seconds =   0.9630967    
 Max norm displacement vector U in all slices (m) =   3.5762682E-04
 Time steps done =       113000  out of       120000
 Time steps remaining =         7000
 Estimated remaining time in seconds =    6741.677    
 Estimated remaining time in hh:mm:ss =      1 h 52 m 21 s
 Estimated total run time in seconds =    115571.6    
 Estimated total run time in hh:mm:ss =     32 h 06 m 11 s
 We have done    94.16666     % of that
 The run will finish approximately on (in local time): Mon Jun 16, 2025 23:07
 
 Time step #       113500
 Time:    226.9980      seconds
 Elapsed time in seconds =    109311.358397007     
 Elapsed time in hh:mm:ss =     30 h 21 m 51 s
 Mean elapsed time per time step in seconds =   0.9630957    
 Max norm displacement vector U in all slices (m) =   3.3834373E-04
 Time steps done =       113500  out of       120000
 Time steps remaining =         6500
 Estimated remaining time in seconds =    6260.122    
 Estimated remaining time in hh:mm:ss =      1 h 44 m 20 s
 Estimated total run time in seconds =    115571.5    
 Estimated total run time in hh:mm:ss =     32 h 06 m 11 s
 We have done    94.58334     % of that
 The run will finish approximately on (in local time): Mon Jun 16, 2025 23:07
 
 Time step #       114000
 Time:    227.9980      seconds
 Elapsed time in seconds =    109793.507778883     
 Elapsed time in hh:mm:ss =     30 h 29 m 53 s
 Mean elapsed time per time step in seconds =   0.9631010    
 Max norm displacement vector U in all slices (m) =   3.4182204E-04
 Time steps done =       114000  out of       120000
 Time steps remaining =         6000
 Estimated remaining time in seconds =    5778.605    
 Estimated remaining time in hh:mm:ss =      1 h 36 m 18 s
 Estimated total run time in seconds =    115572.1    
 Estimated total run time in hh:mm:ss =     32 h 06 m 12 s
 We have done    95.00000     % of that
 The run will finish approximately on (in local time): Mon Jun 16, 2025 23:07
 
 Time step #       114500
 Time:    228.9980      seconds
 Elapsed time in seconds =    110275.855098009     
 Elapsed time in hh:mm:ss =     30 h 37 m 55 s
 Mean elapsed time per time step in seconds =   0.9631079    
 Max norm displacement vector U in all slices (m) =   3.5194913E-04
 Time steps done =       114500  out of       120000
 Time steps remaining =         5500
 Estimated remaining time in seconds =    5297.093    
 Estimated remaining time in hh:mm:ss =      1 h 28 m 17 s
 Estimated total run time in seconds =    115572.9    
 Estimated total run time in hh:mm:ss =     32 h 06 m 12 s
 We have done    95.41666     % of that
 The run will finish approximately on (in local time): Mon Jun 16, 2025 23:08
 
 Time step #       115000
 Time:    229.9980      seconds
 Elapsed time in seconds =    110757.345220804     
 Elapsed time in hh:mm:ss =     30 h 45 m 57 s
 Mean elapsed time per time step in seconds =   0.9631073    
 Max norm displacement vector U in all slices (m) =   3.7735025E-04
 Time steps done =       115000  out of       120000
 Time steps remaining =         5000
 Estimated remaining time in seconds =    4815.537    
 Estimated remaining time in hh:mm:ss =      1 h 20 m 15 s
 Estimated total run time in seconds =    115572.9    
 Estimated total run time in hh:mm:ss =     32 h 06 m 12 s
 We have done    95.83334     % of that
 The run will finish approximately on (in local time): Mon Jun 16, 2025 23:08
 
 Time step #       115500
 Time:    230.9980      seconds
 Elapsed time in seconds =    111239.119324923     
 Elapsed time in hh:mm:ss =     30 h 53 m 59 s
 Mean elapsed time per time step in seconds =   0.9631093    
 Max norm displacement vector U in all slices (m) =   3.8172049E-04
 Time steps done =       115500  out of       120000
 Time steps remaining =         4500
 Estimated remaining time in seconds =    4333.992    
 Estimated remaining time in hh:mm:ss =      1 h 12 m 13 s
 Estimated total run time in seconds =    115573.1    
 Estimated total run time in hh:mm:ss =     32 h 06 m 13 s
 We have done    96.25000     % of that
 The run will finish approximately on (in local time): Mon Jun 16, 2025 23:08
 
 Time step #       116000
 Time:    231.9980      seconds
 Elapsed time in seconds =    111720.530927896     
 Elapsed time in hh:mm:ss =     31 h 02 m 00 s
 Mean elapsed time per time step in seconds =   0.9631080    
 Max norm displacement vector U in all slices (m) =   3.8986641E-04
 Time steps done =       116000  out of       120000
 Time steps remaining =         4000
 Estimated remaining time in seconds =    3852.432    
 Estimated remaining time in hh:mm:ss =      1 h 04 m 12 s
 Estimated total run time in seconds =    115573.0    
 Estimated total run time in hh:mm:ss =     32 h 06 m 12 s
 We have done    96.66666     % of that
 The run will finish approximately on (in local time): Mon Jun 16, 2025 23:08
 
 Time step #       116500
 Time:    232.9980      seconds
 Elapsed time in seconds =    112201.359997988     
 Elapsed time in hh:mm:ss =     31 h 10 m 01 s
 Mean elapsed time per time step in seconds =   0.9631018    
 Max norm displacement vector U in all slices (m) =   3.8256208E-04
 Time steps done =       116500  out of       120000
 Time steps remaining =         3500
 Estimated remaining time in seconds =    3370.856    
 Estimated remaining time in hh:mm:ss =      0 h 56 m 10 s
 Estimated total run time in seconds =    115572.2    
 Estimated total run time in hh:mm:ss =     32 h 06 m 12 s
 We have done    97.08334     % of that
 The run will finish approximately on (in local time): Mon Jun 16, 2025 23:08
 
 Time step #       117000
 Time:    233.9980      seconds
 Elapsed time in seconds =    112681.527383804     
 Elapsed time in hh:mm:ss =     31 h 18 m 01 s
 Mean elapsed time per time step in seconds =   0.9630900    
 Max norm displacement vector U in all slices (m) =   3.8367667E-04
 Time steps done =       117000  out of       120000
 Time steps remaining =         3000
 Estimated remaining time in seconds =    2889.270    
 Estimated remaining time in hh:mm:ss =      0 h 48 m 09 s
 Estimated total run time in seconds =    115570.8    
 Estimated total run time in hh:mm:ss =     32 h 06 m 10 s
 We have done    97.50000     % of that
 The run will finish approximately on (in local time): Mon Jun 16, 2025 23:08
 
 Time step #       117500
 Time:    234.9980      seconds
 Elapsed time in seconds =    113161.594058990     
 Elapsed time in hh:mm:ss =     31 h 26 m 01 s
 Mean elapsed time per time step in seconds =   0.9630774    
 Max norm displacement vector U in all slices (m) =   3.5886871E-04
 Time steps done =       117500  out of       120000
 Time steps remaining =         2500
 Estimated remaining time in seconds =    2407.694    
 Estimated remaining time in hh:mm:ss =      0 h 40 m 07 s
 Estimated total run time in seconds =    115569.3    
 Estimated total run time in hh:mm:ss =     32 h 06 m 09 s
 We have done    97.91666     % of that
 The run will finish approximately on (in local time): Mon Jun 16, 2025 23:08
 
 Time step #       118000
 Time:    235.9980      seconds
 Elapsed time in seconds =    113642.466518879     
 Elapsed time in hh:mm:ss =     31 h 34 m 02 s
 Mean elapsed time per time step in seconds =   0.9630718    
 Max norm displacement vector U in all slices (m) =   3.3908131E-04
 Time steps done =       118000  out of       120000
 Time steps remaining =         2000
 Estimated remaining time in seconds =    1926.144    
 Estimated remaining time in hh:mm:ss =      0 h 32 m 06 s
 Estimated total run time in seconds =    115568.6    
 Estimated total run time in hh:mm:ss =     32 h 06 m 08 s
 We have done    98.33334     % of that
 The run will finish approximately on (in local time): Mon Jun 16, 2025 23:08
 
 Time step #       118500
 Time:    236.9980      seconds
 Elapsed time in seconds =    114123.725908995     
 Elapsed time in hh:mm:ss =     31 h 42 m 03 s
 Mean elapsed time per time step in seconds =   0.9630694    
 Max norm displacement vector U in all slices (m) =   3.3234170E-04
 Time steps done =       118500  out of       120000
 Time steps remaining =         1500
 Estimated remaining time in seconds =    1444.604    
 Estimated remaining time in hh:mm:ss =      0 h 24 m 04 s
 Estimated total run time in seconds =    115568.3    
 Estimated total run time in hh:mm:ss =     32 h 06 m 08 s
 We have done    98.75000     % of that
 The run will finish approximately on (in local time): Mon Jun 16, 2025 23:08
 
 Time step #       119000
 Time:    237.9980      seconds
 Elapsed time in seconds =    114605.420852900     
 Elapsed time in hh:mm:ss =     31 h 50 m 05 s
 Mean elapsed time per time step in seconds =   0.9630708    
 Max norm displacement vector U in all slices (m) =   3.2213633E-04
 Time steps done =       119000  out of       120000
 Time steps remaining =         1000
 Estimated remaining time in seconds =    963.0707    
 Estimated remaining time in hh:mm:ss =      0 h 16 m 03 s
 Estimated total run time in seconds =    115568.5    
 Estimated total run time in hh:mm:ss =     32 h 06 m 08 s
 We have done    99.16666     % of that
 The run will finish approximately on (in local time): Mon Jun 16, 2025 23:08
 
 Time step #       119500
 Time:    238.9980      seconds
 Elapsed time in seconds =    115088.848572969     
 Elapsed time in hh:mm:ss =     31 h 58 m 08 s
 Mean elapsed time per time step in seconds =   0.9630866    
 Max norm displacement vector U in all slices (m) =   3.3187776E-04
 Time steps done =       119500  out of       120000
 Time steps remaining =          500
 Estimated remaining time in seconds =    481.5433    
 Estimated remaining time in hh:mm:ss =      0 h 08 m 01 s
 Estimated total run time in seconds =    115570.4    
 Estimated total run time in hh:mm:ss =     32 h 06 m 10 s
 We have done    99.58334     % of that
 The run will finish approximately on (in local time): Mon Jun 16, 2025 23:08
 
 Time step #       120000
 Time:    239.9980      seconds
 Elapsed time in seconds =    115572.608965874     
 Elapsed time in hh:mm:ss =     32 h 06 m 12 s
 Mean elapsed time per time step in seconds =   0.9631051    
 Max norm displacement vector U in all slices (m) =   3.5000907E-04
 Time steps done =       120000  out of       120000
 Time steps remaining =            0
 Estimated remaining time in seconds =   0.0000000E+00
 Estimated remaining time in hh:mm:ss =      0 h 00 m 00 s
 Estimated total run time in seconds =    115572.6    
 Estimated total run time in hh:mm:ss =     32 h 06 m 12 s
 We have done    100.0000     % of that
 
 Writing the seismograms
 Total number of time steps written:       120000
 Writing the seismograms in parallel took    15.79835      seconds
 
 Time loop finished. Timing info:
 Total elapsed time in seconds =    115589.260980844     
 Total elapsed time in hh:mm:ss =     32 h 06 m 29 s
 
 finalizing simulation
 
 
 End of the simulation
 
