This file contains any messages produced by compilers while
running configure, to aid debugging if configure makes a mistake.

It was created by Specfem3D configure 4.1.1, which was
generated by GNU Autoconf 2.72.  Invocation command line was

  $ ./configure FC=ifort CC=icc MPIFC=mpiifort MPI_INC=/apps/intel/impi/5.0.3.048/intel64/include/ --with-mpi

## --------- ##
## Platform. ##
## --------- ##

hostname = newton-fe
uname -m = x86_64
uname -r = 2.6.32-504.8.1.el6.x86_64
uname -s = Linux
uname -v = #1 SMP Wed Jan 28 21:11:36 UTC 2015

/usr/bin/uname -p = unknown
/bin/uname -X     = unknown

/bin/arch              = x86_64
/usr/bin/arch -k       = unknown
/usr/convex/getsysinfo = unknown
/usr/bin/hostinfo      = unknown
/bin/machine           = unknown
/usr/bin/oslevel       = unknown
/bin/universe          = unknown

PATH: /apps/intel//impi/5.0.3.048/intel64/bin/
PATH: /apps/intel/composer_xe_2015.2.164/bin/intel64/
PATH: /apps/intel/composer_xe_2015.2.164/debugger/gdb/intel64_mic/bin/
PATH: /usr/lib64/qt-3.3/bin/
PATH: /opt/pbs/bin/
PATH: /apps/intel//impi/5.0.3.048/intel64/bin/
PATH: /apps/intel/composer_xe_2015.2.164/bin/intel64/
PATH: /apps/intel/composer_xe_2015.2.164/debugger/gdb/intel64_mic/bin/
PATH: /usr/local/bin/
PATH: /bin/
PATH: /usr/bin/
PATH: /usr/local/sbin/
PATH: /usr/sbin/
PATH: /sbin/
PATH: /home/fderose/bin/


## ----------- ##
## Core tests. ##
## ----------- ##

configure:2939: looking for aux files: config.guess config.sub
configure:2952:  trying ./
configure:2981:   ./config.guess found
configure:2981:   ./config.sub found
configure:3246: checking build system type
configure:3262: result: x86_64-pc-linux-gnu
configure:3282: checking host system type
configure:3297: result: x86_64-pc-linux-gnu
configure:3955: checking for Fortran compiler version
configure:3964: ifort --version >&5
ifort (IFORT) 15.0.2 20150121
Copyright (C) 1985-2015 Intel Corporation.  All rights reserved.

configure:3975: $? = 0
configure:3964: ifort -v >&5
ifort version 15.0.2
configure:3975: $? = 0
configure:3964: ifort -V >&5
Intel(R) Fortran Intel(R) 64 Compiler XE for applications running on Intel(R) 64, Version 15.0.2.164 Build 20150121
Copyright (C) 1985-2015 Intel Corporation.  All rights reserved.

configure:3975: $? = 0
configure:3964: ifort -qversion >&5
ifort: command line warning #10006: ignoring unknown option '-qversion'
ifort: command line error: no files specified; for help type "ifort -help"
configure:3975: $? = 1
configure:3990: checking whether the Fortran compiler works
configure:4012: ifort    conftest.f  >&5
configure:4016: $? = 0
configure:4067: result: yes
configure:4071: checking for Fortran compiler default output file name
configure:4073: result: a.out
configure:4079: checking for suffix of executables
configure:4086: ifort -o conftest    conftest.f  >&5
configure:4090: $? = 0
configure:4114: result: 
configure:4130: checking whether we are cross compiling
configure:4138: ifort -o conftest    conftest.f  >&5
configure:4142: $? = 0
configure:4149: ./conftest
configure:4153: $? = 0
configure:4168: result: no
configure:4174: checking for suffix of object files
configure:4191: ifort -c   conftest.f >&5
configure:4195: $? = 0
configure:4219: result: o
configure:4227: checking whether the compiler supports GNU Fortran
configure:4241: ifort -c   conftest.F >&5
conftest.F(3): error #5082: Syntax error, found END-OF-STATEMENT when expecting one of: ( % [ : . = =>
       choke me
---------------^
conftest.F(3): error #6218: This statement is positioned incorrectly and/or has syntax errors.
       choke me
---------------^
compilation aborted for conftest.F (code 1)
configure:4241: $? = 1
configure: failed program was:
|       program main
| #ifndef __GNUC__
|        choke me
| #endif
| 
|       end
configure:4253: result: no
configure:4261: checking whether ifort accepts -g
configure:4273: ifort -c -g  conftest.f >&5
configure:4273: $? = 0
configure:4284: result: yes
configure:4323: running /bin/sh ./flags.guess
configure:4334: checking how to get verbose linking output from ifort
configure:4345: ifort -c -g  conftest.f >&5
configure:4345: $? = 0
configure:4364: ifort -o conftest -g -v conftest.f
ifort version 15.0.2
/data/apps/intel/composer_xe_2015.2.164/bin/intel64/fortcom    -D__INTEL_COMPILER=1500 -D__INTEL_COMPILER_UPDATE=2 -D__unix__ -D__unix -D__linux__ -D__linux -D__gnu_linux__ -Dunix -Dlinux -D__ELF__ -D__x86_64 -D__x86_64__ -D__amd64 -D__amd64__ -D_MT -D__INTEL_COMPILER_BUILD_DATE=20150121 -D__INTEL_OFFLOAD -D__i686 -D__i686__ -D__pentiumpro -D__pentiumpro__ -D__pentium4 -D__pentium4__ -D__tune_pentium4__ -D__SSE2__ -D__SSE2_MATH__ -D__SSE__ -D__SSE_MATH__ -D__MMX__ -mGLOB_pack_sort_init_list -I. -I/apps/intel/composer_xe_2015.2.164/ipp/include -I/apps/intel/composer_xe_2015.2.164/mkl/include -I/apps/intel/composer_xe_2015.2.164/tbb/include -I/apps/intel/composer_xe_2015.2.164/ipp/include -I/apps/intel/composer_xe_2015.2.164/mkl/include -I/apps/intel/composer_xe_2015.2.164/tbb/include -I/data/apps/intel/composer_xe_2015.2.164/compiler/include/intel64 -I/data/apps/intel/composer_xe_2015.2.164/compiler/include -I/usr/local/include -I/usr/lib/gcc/x86_64-redhat-linux/4.4.7/include -I/usr/include/ -I/usr/include "-fp_modbits honor_f32_conversion" "-fp_modbits honor_f64_conversion" -O0 -g2 -simd -offload_host -mP1OPT_version=15.0-intel64 -mGLOB_diag_file=/tmp/ifort7peE02.diag -mGLOB_source_language=GLOB_SOURCE_LANGUAGE_F90 -mP2OPT_static_promotion -mP1OPT_print_version=FALSE -mCG_use_gas_got_workaround=F -mP2OPT_align_option_used=TRUE -mGLOB_gcc_version=447 "-mGLOB_options_string=-o conftest -g -v" -mGLOB_cxx_limited_range=FALSE -mCG_extend_parms=FALSE -mGLOB_compiler_bin_directory=/data/apps/intel/composer_xe_2015.2.164/bin/intel64 -mP3OPT_emit_line_numbers -mP2OPT_suppress_unreferenced_locals=FALSE -mGLOB_debug_target=GLOB_DEBUG_TARGET_ALL -mDEBUG_info_level=2 -mDEBUG_use_indirect_strings=TRUE -mGLOB_debug_format=GLOB_DEBUG_FORMAT_DWARF30 -mGLOB_as_output_backup_file_name=/tmp/ifortr7sPZvas_.s -mGLOB_em64t -mGLOB_instruction_tuning=0x0 -mGLOB_product_id_code=0x22006d8f -mGLOB_maintain_errno -mGLOB_noinline_intrinsics -mGLOB_use_base_pointer -mCG_bnl_movbe=T -mGLOB_extended_instructions=0x8 -mP3OPT_use_mspp_call_convention -mP2OPT_subs_out_of_bound=FALSE -mGLOB_ansi_alias -mIPOPT_ninl_limit=0 -mIPOPT_ninl_user_level=0 -mPGOPTI_value_profile_use=T -mGLOB_opt_report_use_source_name -mP2OPT_gen_linux_const_pooling=FALSE -mP2OPT_il0_array_sections=TRUE -mGLOB_offload_mode=1 -mP2OPT_offload_unique_var_string=ifort010293112461TKL8db -mGLOB_opt_level=0 -mIPOPT_args_in_regs=0 -mP2OPT_disam_assume_nonstd_intent_in=FALSE -mGLOB_imf_mapping_library=/data/apps/intel/composer_xe_2015.2.164/bin/intel64/libiml_attr.so -mIPOPT_single_file_compile_and_link=TRUE -mP2OPT_hlo_embed_loopinfo -mPGOPTI_gen_threadsafe_level=0 -mIPOPT_obj_output_file_name=/tmp/ifort7peE02.o -mIPOPT_whole_archive_fixup_file_name=/tmp/ifortwarchBFJDZY -mGLOB_linker_version=2.20.51.0.2 -mGLOB_long_size_64 -mGLOB_routine_pointer_size_64 -mGLOB_driver_tempfile_name=/tmp/iforttempfilewIZFud -mP3OPT_asm_target=P3OPT_ASM_TARGET_GAS -mGLOB_async_unwind_tables=TRUE -mGLOB_obj_output_file=/tmp/ifort7peE02.o -mGLOB_source_dialect=GLOB_SOURCE_DIALECT_FORTRAN -mP1OPT_source_file_name=conftest.f -mP2OPT_symtab_type_copy=true conftest.f
#include "..." search starts here:
#include <...> search starts here:
 .
 /apps/intel/composer_xe_2015.2.164/ipp/include
 /apps/intel/composer_xe_2015.2.164/mkl/include
 /apps/intel/composer_xe_2015.2.164/tbb/include
 /apps/intel/composer_xe_2015.2.164/ipp/include
 /apps/intel/composer_xe_2015.2.164/mkl/include
 /apps/intel/composer_xe_2015.2.164/tbb/include
 /data/apps/intel/composer_xe_2015.2.164/compiler/include/intel64
 /data/apps/intel/composer_xe_2015.2.164/compiler/include
 /usr/local/include
 /usr/lib/gcc/x86_64-redhat-linux/4.4.7/include
 /usr/include/
 /usr/include
End of search list.
ld    /usr/lib/gcc/x86_64-redhat-linux/4.4.7/../../../../lib64/crt1.o /usr/lib/gcc/x86_64-redhat-linux/4.4.7/../../../../lib64/crti.o /usr/lib/gcc/x86_64-redhat-linux/4.4.7/crtbegin.o --eh-frame-hdr --build-id -dynamic-linker /lib64/ld-linux-x86-64.so.2 -m elf_x86_64 -o conftest /data/apps/intel/composer_xe_2015.2.164/compiler/lib/intel64/for_main.o -L/apps/intel/composer_xe_2015.2.164/compiler/lib/intel64 -L/apps/intel/composer_xe_2015.2.164/ipp/../compiler/lib/intel64 -L/apps/intel/composer_xe_2015.2.164/ipp/lib/intel64 -L/apps/intel/composer_xe_2015.2.164/compiler/lib/intel64 -L/apps/intel/composer_xe_2015.2.164/mkl/lib/intel64 -L/apps/intel/composer_xe_2015.2.164/tbb/lib/intel64/gcc4.4 -L/apps/intel/composer_xe_2015.2.164/compiler/lib/intel64 -L/apps/intel/composer_xe_2015.2.164/ipp/../compiler/lib/intel64 -L/apps/intel/composer_xe_2015.2.164/ipp/lib/intel64 -L/apps/intel/composer_xe_2015.2.164/compiler/lib/intel64 -L/apps/intel/composer_xe_2015.2.164/mkl/lib/intel64 -L/apps/intel/composer_xe_2015.2.164/tbb/lib/intel64/gcc4.4 -L/data/apps/intel/composer_xe_2015.2.164/compiler/lib/intel64 -L/usr/lib/gcc/x86_64-redhat-linux/4.4.7/ -L/usr/lib/gcc/x86_64-redhat-linux/4.4.7/../../../../lib64 -L/usr/lib/gcc/x86_64-redhat-linux/4.4.7/../../../../lib64/ -L/lib/../lib64 -L/lib/../lib64/ -L/usr/lib/../lib64 -L/usr/lib/../lib64/ -L/apps/intel/composer_xe_2015.2.164/compiler/lib/intel64/ -L/apps/intel/composer_xe_2015.2.164/ipp/../compiler/lib/intel64/ -L/apps/intel/composer_xe_2015.2.164/ipp/lib/intel64/ -L/apps/intel/composer_xe_2015.2.164/mkl/lib/intel64/ -L/apps/intel/composer_xe_2015.2.164/tbb/lib/intel64/gcc4.4/ -L/usr/lib/gcc/x86_64-redhat-linux/4.4.7/../../../ -L/lib64 -L/lib/ -L/usr/lib64 -L/usr/lib /tmp/ifort7peE02.o -Bdynamic -Bstatic -lifport -lifcore -limf -lsvml -Bdynamic -lm -Bstatic -lipgo -lirc -Bdynamic -lpthread -Bstatic -lsvml -Bdynamic -lc -lgcc -lgcc_s -Bstatic -lirc_s -Bdynamic -ldl -lc /usr/lib/gcc/x86_64-redhat-linux/4.4.7/crtend.o /usr/lib/gcc/x86_64-redhat-linux/4.4.7/../../../../lib64/crtn.o
configure:4449: result: -v
configure:4451: checking for Fortran libraries of ifort
configure:4475: ifort -o conftest -g -v conftest.f
ifort version 15.0.2
/data/apps/intel/composer_xe_2015.2.164/bin/intel64/fortcom    -D__INTEL_COMPILER=1500 -D__INTEL_COMPILER_UPDATE=2 -D__unix__ -D__unix -D__linux__ -D__linux -D__gnu_linux__ -Dunix -Dlinux -D__ELF__ -D__x86_64 -D__x86_64__ -D__amd64 -D__amd64__ -D_MT -D__INTEL_COMPILER_BUILD_DATE=20150121 -D__INTEL_OFFLOAD -D__i686 -D__i686__ -D__pentiumpro -D__pentiumpro__ -D__pentium4 -D__pentium4__ -D__tune_pentium4__ -D__SSE2__ -D__SSE2_MATH__ -D__SSE__ -D__SSE_MATH__ -D__MMX__ -mGLOB_pack_sort_init_list -I. -I/apps/intel/composer_xe_2015.2.164/ipp/include -I/apps/intel/composer_xe_2015.2.164/mkl/include -I/apps/intel/composer_xe_2015.2.164/tbb/include -I/apps/intel/composer_xe_2015.2.164/ipp/include -I/apps/intel/composer_xe_2015.2.164/mkl/include -I/apps/intel/composer_xe_2015.2.164/tbb/include -I/data/apps/intel/composer_xe_2015.2.164/compiler/include/intel64 -I/data/apps/intel/composer_xe_2015.2.164/compiler/include -I/usr/local/include -I/usr/lib/gcc/x86_64-redhat-linux/4.4.7/include -I/usr/include/ -I/usr/include "-fp_modbits honor_f32_conversion" "-fp_modbits honor_f64_conversion" -O0 -g2 -simd -offload_host -mP1OPT_version=15.0-intel64 -mGLOB_diag_file=/tmp/ifortMRTYhi.diag -mGLOB_source_language=GLOB_SOURCE_LANGUAGE_F90 -mP2OPT_static_promotion -mP1OPT_print_version=FALSE -mCG_use_gas_got_workaround=F -mP2OPT_align_option_used=TRUE -mGLOB_gcc_version=447 "-mGLOB_options_string=-o conftest -g -v" -mGLOB_cxx_limited_range=FALSE -mCG_extend_parms=FALSE -mGLOB_compiler_bin_directory=/data/apps/intel/composer_xe_2015.2.164/bin/intel64 -mP3OPT_emit_line_numbers -mP2OPT_suppress_unreferenced_locals=FALSE -mGLOB_debug_target=GLOB_DEBUG_TARGET_ALL -mDEBUG_info_level=2 -mDEBUG_use_indirect_strings=TRUE -mGLOB_debug_format=GLOB_DEBUG_FORMAT_DWARF30 -mGLOB_as_output_backup_file_name=/tmp/ifortY117dMas_.s -mGLOB_em64t -mGLOB_instruction_tuning=0x0 -mGLOB_product_id_code=0x22006d8f -mGLOB_maintain_errno -mGLOB_noinline_intrinsics -mGLOB_use_base_pointer -mCG_bnl_movbe=T -mGLOB_extended_instructions=0x8 -mP3OPT_use_mspp_call_convention -mP2OPT_subs_out_of_bound=FALSE -mGLOB_ansi_alias -mIPOPT_ninl_limit=0 -mIPOPT_ninl_user_level=0 -mPGOPTI_value_profile_use=T -mGLOB_opt_report_use_source_name -mP2OPT_gen_linux_const_pooling=FALSE -mP2OPT_il0_array_sections=TRUE -mGLOB_offload_mode=1 -mP2OPT_offload_unique_var_string=ifort0101267709671YADJHm -mGLOB_opt_level=0 -mIPOPT_args_in_regs=0 -mP2OPT_disam_assume_nonstd_intent_in=FALSE -mGLOB_imf_mapping_library=/data/apps/intel/composer_xe_2015.2.164/bin/intel64/libiml_attr.so -mIPOPT_single_file_compile_and_link=TRUE -mP2OPT_hlo_embed_loopinfo -mPGOPTI_gen_threadsafe_level=0 -mIPOPT_obj_output_file_name=/tmp/ifortMRTYhi.o -mIPOPT_whole_archive_fixup_file_name=/tmp/ifortwarch0u0Tag -mGLOB_linker_version=2.20.51.0.2 -mGLOB_long_size_64 -mGLOB_routine_pointer_size_64 -mGLOB_driver_tempfile_name=/tmp/iforttempfileQPAp9u -mP3OPT_asm_target=P3OPT_ASM_TARGET_GAS -mGLOB_async_unwind_tables=TRUE -mGLOB_obj_output_file=/tmp/ifortMRTYhi.o -mGLOB_source_dialect=GLOB_SOURCE_DIALECT_FORTRAN -mP1OPT_source_file_name=conftest.f -mP2OPT_symtab_type_copy=true conftest.f
#include "..." search starts here:
#include <...> search starts here:
 .
 /apps/intel/composer_xe_2015.2.164/ipp/include
 /apps/intel/composer_xe_2015.2.164/mkl/include
 /apps/intel/composer_xe_2015.2.164/tbb/include
 /apps/intel/composer_xe_2015.2.164/ipp/include
 /apps/intel/composer_xe_2015.2.164/mkl/include
 /apps/intel/composer_xe_2015.2.164/tbb/include
 /data/apps/intel/composer_xe_2015.2.164/compiler/include/intel64
 /data/apps/intel/composer_xe_2015.2.164/compiler/include
 /usr/local/include
 /usr/lib/gcc/x86_64-redhat-linux/4.4.7/include
 /usr/include/
 /usr/include
End of search list.
ld    /usr/lib/gcc/x86_64-redhat-linux/4.4.7/../../../../lib64/crt1.o /usr/lib/gcc/x86_64-redhat-linux/4.4.7/../../../../lib64/crti.o /usr/lib/gcc/x86_64-redhat-linux/4.4.7/crtbegin.o --eh-frame-hdr --build-id -dynamic-linker /lib64/ld-linux-x86-64.so.2 -m elf_x86_64 -o conftest /data/apps/intel/composer_xe_2015.2.164/compiler/lib/intel64/for_main.o -L/apps/intel/composer_xe_2015.2.164/compiler/lib/intel64 -L/apps/intel/composer_xe_2015.2.164/ipp/../compiler/lib/intel64 -L/apps/intel/composer_xe_2015.2.164/ipp/lib/intel64 -L/apps/intel/composer_xe_2015.2.164/compiler/lib/intel64 -L/apps/intel/composer_xe_2015.2.164/mkl/lib/intel64 -L/apps/intel/composer_xe_2015.2.164/tbb/lib/intel64/gcc4.4 -L/apps/intel/composer_xe_2015.2.164/compiler/lib/intel64 -L/apps/intel/composer_xe_2015.2.164/ipp/../compiler/lib/intel64 -L/apps/intel/composer_xe_2015.2.164/ipp/lib/intel64 -L/apps/intel/composer_xe_2015.2.164/compiler/lib/intel64 -L/apps/intel/composer_xe_2015.2.164/mkl/lib/intel64 -L/apps/intel/composer_xe_2015.2.164/tbb/lib/intel64/gcc4.4 -L/data/apps/intel/composer_xe_2015.2.164/compiler/lib/intel64 -L/usr/lib/gcc/x86_64-redhat-linux/4.4.7/ -L/usr/lib/gcc/x86_64-redhat-linux/4.4.7/../../../../lib64 -L/usr/lib/gcc/x86_64-redhat-linux/4.4.7/../../../../lib64/ -L/lib/../lib64 -L/lib/../lib64/ -L/usr/lib/../lib64 -L/usr/lib/../lib64/ -L/apps/intel/composer_xe_2015.2.164/compiler/lib/intel64/ -L/apps/intel/composer_xe_2015.2.164/ipp/../compiler/lib/intel64/ -L/apps/intel/composer_xe_2015.2.164/ipp/lib/intel64/ -L/apps/intel/composer_xe_2015.2.164/mkl/lib/intel64/ -L/apps/intel/composer_xe_2015.2.164/tbb/lib/intel64/gcc4.4/ -L/usr/lib/gcc/x86_64-redhat-linux/4.4.7/../../../ -L/lib64 -L/lib/ -L/usr/lib64 -L/usr/lib /tmp/ifortMRTYhi.o -Bdynamic -Bstatic -lifport -lifcore -limf -lsvml -Bdynamic -lm -Bstatic -lipgo -lirc -Bdynamic -lpthread -Bstatic -lsvml -Bdynamic -lc -lgcc -lgcc_s -Bstatic -lirc_s -Bdynamic -ldl -lc /usr/lib/gcc/x86_64-redhat-linux/4.4.7/crtend.o /usr/lib/gcc/x86_64-redhat-linux/4.4.7/../../../../lib64/crtn.o
configure:4697: result:  -L/apps/intel/composer_xe_2015.2.164/compiler/lib/intel64 -L/apps/intel/composer_xe_2015.2.164/ipp/../compiler/lib/intel64 -L/apps/intel/composer_xe_2015.2.164/ipp/lib/intel64 -L/apps/intel/composer_xe_2015.2.164/mkl/lib/intel64 -L/apps/intel/composer_xe_2015.2.164/tbb/lib/intel64/gcc4.4 -L/data/apps/intel/composer_xe_2015.2.164/compiler/lib/intel64 -L/usr/lib/gcc/x86_64-redhat-linux/4.4.7/ -L/usr/lib/gcc/x86_64-redhat-linux/4.4.7/../../../../lib64 -L/usr/lib/gcc/x86_64-redhat-linux/4.4.7/../../../../lib64/ -L/lib/../lib64 -L/lib/../lib64/ -L/usr/lib/../lib64 -L/usr/lib/../lib64/ -L/apps/intel/composer_xe_2015.2.164/compiler/lib/intel64/ -L/apps/intel/composer_xe_2015.2.164/ipp/../compiler/lib/intel64/ -L/apps/intel/composer_xe_2015.2.164/ipp/lib/intel64/ -L/apps/intel/composer_xe_2015.2.164/mkl/lib/intel64/ -L/apps/intel/composer_xe_2015.2.164/tbb/lib/intel64/gcc4.4/ -L/usr/lib/gcc/x86_64-redhat-linux/4.4.7/../../../ -L/lib64 -L/lib/ -L/usr/lib64 -L/usr/lib -lifport -lifcore -limf -lsvml -lm -lipgo -lirc -lpthread -lirc_s -ldl
configure:4771: checking for gcc
configure:4804: result: icc
configure:5163: checking for C compiler version
configure:5172: icc --version >&5
icc (ICC) 15.0.2 20150121
Copyright (C) 1985-2015 Intel Corporation.  All rights reserved.

configure:5183: $? = 0
configure:5172: icc -v >&5
icc version 15.0.2 (gcc version 4.4.7 compatibility)
configure:5183: $? = 0
configure:5172: icc -V >&5
Intel(R) C Intel(R) 64 Compiler XE for applications running on Intel(R) 64, Version 15.0.2.164 Build 20150121
Copyright (C) 1985-2015 Intel Corporation.  All rights reserved.

configure:5183: $? = 0
configure:5172: icc -qversion >&5
icc: command line warning #10006: ignoring unknown option '-qversion'
icc: command line error: no files specified; for help type "icc -help"
configure:5183: $? = 1
configure:5172: icc -version >&5
icc: command line warning #10006: ignoring unknown option '-version'
icc: command line error: no files specified; for help type "icc -help"
configure:5183: $? = 1
configure:5187: checking whether the compiler supports GNU C
configure:5215: icc -c   conftest.c >&5
configure:5215: $? = 0
configure:5227: result: yes
configure:5238: checking whether icc accepts -g
configure:5267: icc -c -g  conftest.c >&5
configure:5267: $? = 0
configure:5330: result: yes
configure:5350: checking for icc option to enable C11 features
configure:5365: icc  -c -g -O2  conftest.c >&5
conftest.c(74): error: #error directive: "Compiler does not advertise C99 conformance"
  # error "Compiler does not advertise C99 conformance"
    ^

conftest.c(132): error: expected a ")"
  test_restrict (ccp restrict text)
                              ^

conftest.c(136): error: expected an expression
    for (unsigned int i = 0; *(text+i) != '\0'; ++i)
         ^

conftest.c(136): error: identifier "text" is undefined
    for (unsigned int i = 0; *(text+i) != '\0'; ++i)
                               ^

conftest.c(136): error: identifier "i" is undefined
    for (unsigned int i = 0; *(text+i) != '\0'; ++i)
                                    ^

conftest.c(180): error: #error directive: "Compiler does not advertise C11 conformance"
  # error "Compiler does not advertise C11 conformance"
    ^

conftest.c(184): error #141: unnamed prototyped parameters not allowed when body is present
  char _Alignas (double) aligned_as_double;
       ^

conftest.c(184): error: expected a "{"
  char _Alignas (double) aligned_as_double;
                         ^

conftest.c(191): warning #12: parsing restarts here after previous syntax error
  {
  ^

conftest.c(192): error: identifier "int_alignment" is undefined
    int_alignment = _Alignof (int),
    ^

conftest.c(192): error: expected an expression
    int_alignment = _Alignof (int),
                              ^

conftest.c(193): error: identifier "int_array_alignment" is undefined
    int_array_alignment = _Alignof (int[100]),
    ^

conftest.c(193): error: expected an expression
    int_array_alignment = _Alignof (int[100]),
                                    ^

conftest.c(194): error: identifier "char_alignment" is undefined
    char_alignment = _Alignof (char)
    ^

conftest.c(194): error: expected an expression
    char_alignment = _Alignof (char)
                               ^

conftest.c(195): error: expected a ";"
  };
  ^

conftest.c(196): error: expected a type specifier
  _Static_assert (0 < -_Alignof (int), "_Alignof is signed");
                  ^

conftest.c(196): error: expected a type specifier
  _Static_assert (0 < -_Alignof (int), "_Alignof is signed");
                                       ^

conftest.c(196): warning #77: this declaration has no storage class or type specifier
  _Static_assert (0 < -_Alignof (int), "_Alignof is signed");
  ^

conftest.c(199): error: expected a ";"
  int _Noreturn does_not_return (void) { for (;;) continue; }
                ^

conftest.c(208): warning #12: parsing restarts here after previous syntax error
  };
   ^

conftest.c(212): error: identifier "syntax" is undefined
  char const utf8_literal[] = u8"happens to be ASCII" "another string";
                              ^

conftest.c(212): error: expected a ";"
  char const utf8_literal[] = u8"happens to be ASCII" "another string";
                              ^

conftest.c(245): error: expected a ";"
    char *restrict newvar = "Another string";
                   ^

conftest.c(255): error: expected an expression
    for (int i = 0; i < ia->datasize; ++i)
         ^

conftest.c(255): error: identifier "i" is undefined
    for (int i = 0; i < ia->datasize; ++i)
                    ^

conftest.c(274): error: identifier "newvar" is undefined
    ok |= (!success || bignum == 0LL || ubignum == 0uLL || newvar[0] == 'x'
                                                           ^

compilation aborted for conftest.c (code 2)
configure:5365: $? = 2
configure: failed program was:
| /* confdefs.h */
| #define PACKAGE_NAME "Specfem3D"
| #define PACKAGE_TARNAME "Specfem3D"
| #define PACKAGE_VERSION "4.1.1"
| #define PACKAGE_STRING "Specfem3D 4.1.1"
| #define PACKAGE_BUGREPORT "see the wiki"
| #define PACKAGE_URL ""
| /* end confdefs.h.  */
| 
| /* Does the compiler advertise C89 conformance?
|    Do not test the value of __STDC__, because some compilers set it to 0
|    while being otherwise adequately conformant. */
| #if !defined __STDC__
| # error "Compiler does not advertise C89 conformance"
| #endif
| 
| #include <stddef.h>
| #include <stdarg.h>
| struct stat;
| /* Most of the following tests are stolen from RCS 5.7 src/conf.sh.  */
| struct buf { int x; };
| struct buf * (*rcsopen) (struct buf *, struct stat *, int);
| static char *e (char **p, int i)
| {
|   return p[i];
| }
| static char *f (char * (*g) (char **, int), char **p, ...)
| {
|   char *s;
|   va_list v;
|   va_start (v,p);
|   s = g (p, va_arg (v,int));
|   va_end (v);
|   return s;
| }
| 
| /* C89 style stringification. */
| #define noexpand_stringify(a) #a
| const char *stringified = noexpand_stringify(arbitrary+token=sequence);
| 
| /* C89 style token pasting.  Exercises some of the corner cases that
|    e.g. old MSVC gets wrong, but not very hard. */
| #define noexpand_concat(a,b) a##b
| #define expand_concat(a,b) noexpand_concat(a,b)
| extern int vA;
| extern int vbee;
| #define aye A
| #define bee B
| int *pvA = &expand_concat(v,aye);
| int *pvbee = &noexpand_concat(v,bee);
| 
| /* OSF 4.0 Compaq cc is some sort of almost-ANSI by default.  It has
|    function prototypes and stuff, but not \xHH hex character constants.
|    These do not provoke an error unfortunately, instead are silently treated
|    as an "x".  The following induces an error, until -std is added to get
|    proper ANSI mode.  Curiously \x00 != x always comes out true, for an
|    array size at least.  It is necessary to write \x00 == 0 to get something
|    that is true only with -std.  */
| int osf4_cc_array ['\x00' == 0 ? 1 : -1];
| 
| /* IBM C 6 for AIX is almost-ANSI by default, but it replaces macro parameters
|    inside strings and character constants.  */
| #define FOO(x) 'x'
| int xlc6_cc_array[FOO(a) == 'x' ? 1 : -1];
| 
| int test (int i, double x);
| struct s1 {int (*f) (int a);};
| struct s2 {int (*f) (double a);};
| int pairnames (int, char **, int *(*)(struct buf *, struct stat *, int),
|                int, int);
| 
| /* Does the compiler advertise C99 conformance? */
| #if !defined __STDC_VERSION__ || __STDC_VERSION__ < 199901L
| # error "Compiler does not advertise C99 conformance"
| #endif
| 
| // See if C++-style comments work.
| 
| #include <stdbool.h>
| extern int puts (const char *);
| extern int printf (const char *, ...);
| extern int dprintf (int, const char *, ...);
| extern void *malloc (size_t);
| extern void free (void *);
| 
| // Check varargs macros.  These examples are taken from C99 6.10.3.5.
| // dprintf is used instead of fprintf to avoid needing to declare
| // FILE and stderr.
| #define debug(...) dprintf (2, __VA_ARGS__)
| #define showlist(...) puts (#__VA_ARGS__)
| #define report(test,...) ((test) ? puts (#test) : printf (__VA_ARGS__))
| static void
| test_varargs_macros (void)
| {
|   int x = 1234;
|   int y = 5678;
|   debug ("Flag");
|   debug ("X = %d\n", x);
|   showlist (The first, second, and third items.);
|   report (x>y, "x is %d but y is %d", x, y);
| }
| 
| // Check long long types.
| #define BIG64 18446744073709551615ull
| #define BIG32 4294967295ul
| #define BIG_OK (BIG64 / BIG32 == 4294967297ull && BIG64 % BIG32 == 0)
| #if !BIG_OK
|   #error "your preprocessor is broken"
| #endif
| #if BIG_OK
| #else
|   #error "your preprocessor is broken"
| #endif
| static long long int bignum = -9223372036854775807LL;
| static unsigned long long int ubignum = BIG64;
| 
| struct incomplete_array
| {
|   int datasize;
|   double data[];
| };
| 
| struct named_init {
|   int number;
|   const wchar_t *name;
|   double average;
| };
| 
| typedef const char *ccp;
| 
| static inline int
| test_restrict (ccp restrict text)
| {
|   // Iterate through items via the restricted pointer.
|   // Also check for declarations in for loops.
|   for (unsigned int i = 0; *(text+i) != '\0'; ++i)
|     continue;
|   return 0;
| }
| 
| // Check varargs and va_copy.
| static bool
| test_varargs (const char *format, ...)
| {
|   va_list args;
|   va_start (args, format);
|   va_list args_copy;
|   va_copy (args_copy, args);
| 
|   const char *str = "";
|   int number = 0;
|   float fnumber = 0;
| 
|   while (*format)
|     {
|       switch (*format++)
| 	{
| 	case 's': // string
| 	  str = va_arg (args_copy, const char *);
| 	  break;
| 	case 'd': // int
| 	  number = va_arg (args_copy, int);
| 	  break;
| 	case 'f': // float
| 	  fnumber = va_arg (args_copy, double);
| 	  break;
| 	default:
| 	  break;
| 	}
|     }
|   va_end (args_copy);
|   va_end (args);
| 
|   return *str && number && fnumber;
| }
| 
| 
| /* Does the compiler advertise C11 conformance? */
| #if !defined __STDC_VERSION__ || __STDC_VERSION__ < 201112L
| # error "Compiler does not advertise C11 conformance"
| #endif
| 
| // Check _Alignas.
| char _Alignas (double) aligned_as_double;
| char _Alignas (0) no_special_alignment;
| extern char aligned_as_int;
| char _Alignas (0) _Alignas (int) aligned_as_int;
| 
| // Check _Alignof.
| enum
| {
|   int_alignment = _Alignof (int),
|   int_array_alignment = _Alignof (int[100]),
|   char_alignment = _Alignof (char)
| };
| _Static_assert (0 < -_Alignof (int), "_Alignof is signed");
| 
| // Check _Noreturn.
| int _Noreturn does_not_return (void) { for (;;) continue; }
| 
| // Check _Static_assert.
| struct test_static_assert
| {
|   int x;
|   _Static_assert (sizeof (int) <= sizeof (long int),
|                   "_Static_assert does not work in struct");
|   long int y;
| };
| 
| // Check UTF-8 literals.
| #define u8 syntax error!
| char const utf8_literal[] = u8"happens to be ASCII" "another string";
| 
| // Check duplicate typedefs.
| typedef long *long_ptr;
| typedef long int *long_ptr;
| typedef long_ptr long_ptr;
| 
| // Anonymous structures and unions -- taken from C11 6.7.2.1 Example 1.
| struct anonymous
| {
|   union {
|     struct { int i; int j; };
|     struct { int k; long int l; } w;
|   };
|   int m;
| } v1;
| 
| 
| int
| main (int argc, char **argv)
| {
|   int ok = 0;
|   
| ok |= (argc == 0 || f (e, argv, 0) != argv[0] || f (e, argv, 1) != argv[1]);
| 
|   
|   // Check bool.
|   _Bool success = false;
|   success |= (argc != 0);
| 
|   // Check restrict.
|   if (test_restrict ("String literal") == 0)
|     success = true;
|   char *restrict newvar = "Another string";
| 
|   // Check varargs.
|   success &= test_varargs ("s, d' f .", "string", 65, 34.234);
|   test_varargs_macros ();
| 
|   // Check flexible array members.
|   struct incomplete_array *ia =
|     malloc (sizeof (struct incomplete_array) + (sizeof (double) * 10));
|   ia->datasize = 10;
|   for (int i = 0; i < ia->datasize; ++i)
|     ia->data[i] = i * 1.234;
|   // Work around memory leak warnings.
|   free (ia);
| 
|   // Check named initializers.
|   struct named_init ni = {
|     .number = 34,
|     .name = L"Test wide string",
|     .average = 543.34343,
|   };
| 
|   ni.number = 58;
| 
|   int dynamic_array[ni.number];
|   dynamic_array[0] = argv[0][0];
|   dynamic_array[ni.number - 1] = 543;
| 
|   // work around unused variable warnings
|   ok |= (!success || bignum == 0LL || ubignum == 0uLL || newvar[0] == 'x'
| 	 || dynamic_array[ni.number - 1] != 543);
| 
|   
|   _Static_assert ((offsetof (struct anonymous, i)
| 		   == offsetof (struct anonymous, w.k)),
| 		  "Anonymous union alignment botch");
|   v1.i = 2;
|   v1.w.k = 5;
|   ok |= v1.i != 5;
| 
|   return ok;
| }
| 
configure:5365: icc -std=gnu11 -c -g -O2  conftest.c >&5
conftest.c(180): error: #error directive: "Compiler does not advertise C11 conformance"
  # error "Compiler does not advertise C11 conformance"
    ^

conftest.c(184): error #141: unnamed prototyped parameters not allowed when body is present
  char _Alignas (double) aligned_as_double;
       ^

conftest.c(184): error: expected a "{"
  char _Alignas (double) aligned_as_double;
                         ^

conftest.c(191): warning #12: parsing restarts here after previous syntax error
  {
  ^

conftest.c(192): error: identifier "int_alignment" is undefined
    int_alignment = _Alignof (int),
    ^

conftest.c(192): warning #266: function "_Alignof" declared implicitly
    int_alignment = _Alignof (int),
                    ^

conftest.c(192): error: expected an expression
    int_alignment = _Alignof (int),
                              ^

conftest.c(193): error: identifier "int_array_alignment" is undefined
    int_array_alignment = _Alignof (int[100]),
    ^

conftest.c(193): error: expected an expression
    int_array_alignment = _Alignof (int[100]),
                                    ^

conftest.c(194): error: identifier "char_alignment" is undefined
    char_alignment = _Alignof (char)
    ^

conftest.c(194): error: expected an expression
    char_alignment = _Alignof (char)
                               ^

conftest.c(195): error: expected a ";"
  };
  ^

conftest.c(196): error: identifier "_Alignof" is undefined
  _Static_assert (0 < -_Alignof (int), "_Alignof is signed");
                       ^

conftest.c(196): error: function call is not allowed in a constant expression
  _Static_assert (0 < -_Alignof (int), "_Alignof is signed");
                       ^

conftest.c(196): error: expected an expression
  _Static_assert (0 < -_Alignof (int), "_Alignof is signed");
                                 ^

conftest.c(199): error: expected a ";"
  int _Noreturn does_not_return (void) { for (;;) continue; }
                ^

conftest.c(208): warning #12: parsing restarts here after previous syntax error
  };
   ^

conftest.c(212): error: identifier "syntax" is undefined
  char const utf8_literal[] = u8"happens to be ASCII" "another string";
                              ^

conftest.c(212): error: expected a ";"
  char const utf8_literal[] = u8"happens to be ASCII" "another string";
                              ^

compilation aborted for conftest.c (code 2)
configure:5365: $? = 2
configure: failed program was:
| /* confdefs.h */
| #define PACKAGE_NAME "Specfem3D"
| #define PACKAGE_TARNAME "Specfem3D"
| #define PACKAGE_VERSION "4.1.1"
| #define PACKAGE_STRING "Specfem3D 4.1.1"
| #define PACKAGE_BUGREPORT "see the wiki"
| #define PACKAGE_URL ""
| /* end confdefs.h.  */
| 
| /* Does the compiler advertise C89 conformance?
|    Do not test the value of __STDC__, because some compilers set it to 0
|    while being otherwise adequately conformant. */
| #if !defined __STDC__
| # error "Compiler does not advertise C89 conformance"
| #endif
| 
| #include <stddef.h>
| #include <stdarg.h>
| struct stat;
| /* Most of the following tests are stolen from RCS 5.7 src/conf.sh.  */
| struct buf { int x; };
| struct buf * (*rcsopen) (struct buf *, struct stat *, int);
| static char *e (char **p, int i)
| {
|   return p[i];
| }
| static char *f (char * (*g) (char **, int), char **p, ...)
| {
|   char *s;
|   va_list v;
|   va_start (v,p);
|   s = g (p, va_arg (v,int));
|   va_end (v);
|   return s;
| }
| 
| /* C89 style stringification. */
| #define noexpand_stringify(a) #a
| const char *stringified = noexpand_stringify(arbitrary+token=sequence);
| 
| /* C89 style token pasting.  Exercises some of the corner cases that
|    e.g. old MSVC gets wrong, but not very hard. */
| #define noexpand_concat(a,b) a##b
| #define expand_concat(a,b) noexpand_concat(a,b)
| extern int vA;
| extern int vbee;
| #define aye A
| #define bee B
| int *pvA = &expand_concat(v,aye);
| int *pvbee = &noexpand_concat(v,bee);
| 
| /* OSF 4.0 Compaq cc is some sort of almost-ANSI by default.  It has
|    function prototypes and stuff, but not \xHH hex character constants.
|    These do not provoke an error unfortunately, instead are silently treated
|    as an "x".  The following induces an error, until -std is added to get
|    proper ANSI mode.  Curiously \x00 != x always comes out true, for an
|    array size at least.  It is necessary to write \x00 == 0 to get something
|    that is true only with -std.  */
| int osf4_cc_array ['\x00' == 0 ? 1 : -1];
| 
| /* IBM C 6 for AIX is almost-ANSI by default, but it replaces macro parameters
|    inside strings and character constants.  */
| #define FOO(x) 'x'
| int xlc6_cc_array[FOO(a) == 'x' ? 1 : -1];
| 
| int test (int i, double x);
| struct s1 {int (*f) (int a);};
| struct s2 {int (*f) (double a);};
| int pairnames (int, char **, int *(*)(struct buf *, struct stat *, int),
|                int, int);
| 
| /* Does the compiler advertise C99 conformance? */
| #if !defined __STDC_VERSION__ || __STDC_VERSION__ < 199901L
| # error "Compiler does not advertise C99 conformance"
| #endif
| 
| // See if C++-style comments work.
| 
| #include <stdbool.h>
| extern int puts (const char *);
| extern int printf (const char *, ...);
| extern int dprintf (int, const char *, ...);
| extern void *malloc (size_t);
| extern void free (void *);
| 
| // Check varargs macros.  These examples are taken from C99 6.10.3.5.
| // dprintf is used instead of fprintf to avoid needing to declare
| // FILE and stderr.
| #define debug(...) dprintf (2, __VA_ARGS__)
| #define showlist(...) puts (#__VA_ARGS__)
| #define report(test,...) ((test) ? puts (#test) : printf (__VA_ARGS__))
| static void
| test_varargs_macros (void)
| {
|   int x = 1234;
|   int y = 5678;
|   debug ("Flag");
|   debug ("X = %d\n", x);
|   showlist (The first, second, and third items.);
|   report (x>y, "x is %d but y is %d", x, y);
| }
| 
| // Check long long types.
| #define BIG64 18446744073709551615ull
| #define BIG32 4294967295ul
| #define BIG_OK (BIG64 / BIG32 == 4294967297ull && BIG64 % BIG32 == 0)
| #if !BIG_OK
|   #error "your preprocessor is broken"
| #endif
| #if BIG_OK
| #else
|   #error "your preprocessor is broken"
| #endif
| static long long int bignum = -9223372036854775807LL;
| static unsigned long long int ubignum = BIG64;
| 
| struct incomplete_array
| {
|   int datasize;
|   double data[];
| };
| 
| struct named_init {
|   int number;
|   const wchar_t *name;
|   double average;
| };
| 
| typedef const char *ccp;
| 
| static inline int
| test_restrict (ccp restrict text)
| {
|   // Iterate through items via the restricted pointer.
|   // Also check for declarations in for loops.
|   for (unsigned int i = 0; *(text+i) != '\0'; ++i)
|     continue;
|   return 0;
| }
| 
| // Check varargs and va_copy.
| static bool
| test_varargs (const char *format, ...)
| {
|   va_list args;
|   va_start (args, format);
|   va_list args_copy;
|   va_copy (args_copy, args);
| 
|   const char *str = "";
|   int number = 0;
|   float fnumber = 0;
| 
|   while (*format)
|     {
|       switch (*format++)
| 	{
| 	case 's': // string
| 	  str = va_arg (args_copy, const char *);
| 	  break;
| 	case 'd': // int
| 	  number = va_arg (args_copy, int);
| 	  break;
| 	case 'f': // float
| 	  fnumber = va_arg (args_copy, double);
| 	  break;
| 	default:
| 	  break;
| 	}
|     }
|   va_end (args_copy);
|   va_end (args);
| 
|   return *str && number && fnumber;
| }
| 
| 
| /* Does the compiler advertise C11 conformance? */
| #if !defined __STDC_VERSION__ || __STDC_VERSION__ < 201112L
| # error "Compiler does not advertise C11 conformance"
| #endif
| 
| // Check _Alignas.
| char _Alignas (double) aligned_as_double;
| char _Alignas (0) no_special_alignment;
| extern char aligned_as_int;
| char _Alignas (0) _Alignas (int) aligned_as_int;
| 
| // Check _Alignof.
| enum
| {
|   int_alignment = _Alignof (int),
|   int_array_alignment = _Alignof (int[100]),
|   char_alignment = _Alignof (char)
| };
| _Static_assert (0 < -_Alignof (int), "_Alignof is signed");
| 
| // Check _Noreturn.
| int _Noreturn does_not_return (void) { for (;;) continue; }
| 
| // Check _Static_assert.
| struct test_static_assert
| {
|   int x;
|   _Static_assert (sizeof (int) <= sizeof (long int),
|                   "_Static_assert does not work in struct");
|   long int y;
| };
| 
| // Check UTF-8 literals.
| #define u8 syntax error!
| char const utf8_literal[] = u8"happens to be ASCII" "another string";
| 
| // Check duplicate typedefs.
| typedef long *long_ptr;
| typedef long int *long_ptr;
| typedef long_ptr long_ptr;
| 
| // Anonymous structures and unions -- taken from C11 6.7.2.1 Example 1.
| struct anonymous
| {
|   union {
|     struct { int i; int j; };
|     struct { int k; long int l; } w;
|   };
|   int m;
| } v1;
| 
| 
| int
| main (int argc, char **argv)
| {
|   int ok = 0;
|   
| ok |= (argc == 0 || f (e, argv, 0) != argv[0] || f (e, argv, 1) != argv[1]);
| 
|   
|   // Check bool.
|   _Bool success = false;
|   success |= (argc != 0);
| 
|   // Check restrict.
|   if (test_restrict ("String literal") == 0)
|     success = true;
|   char *restrict newvar = "Another string";
| 
|   // Check varargs.
|   success &= test_varargs ("s, d' f .", "string", 65, 34.234);
|   test_varargs_macros ();
| 
|   // Check flexible array members.
|   struct incomplete_array *ia =
|     malloc (sizeof (struct incomplete_array) + (sizeof (double) * 10));
|   ia->datasize = 10;
|   for (int i = 0; i < ia->datasize; ++i)
|     ia->data[i] = i * 1.234;
|   // Work around memory leak warnings.
|   free (ia);
| 
|   // Check named initializers.
|   struct named_init ni = {
|     .number = 34,
|     .name = L"Test wide string",
|     .average = 543.34343,
|   };
| 
|   ni.number = 58;
| 
|   int dynamic_array[ni.number];
|   dynamic_array[0] = argv[0][0];
|   dynamic_array[ni.number - 1] = 543;
| 
|   // work around unused variable warnings
|   ok |= (!success || bignum == 0LL || ubignum == 0uLL || newvar[0] == 'x'
| 	 || dynamic_array[ni.number - 1] != 543);
| 
|   
|   _Static_assert ((offsetof (struct anonymous, i)
| 		   == offsetof (struct anonymous, w.k)),
| 		  "Anonymous union alignment botch");
|   v1.i = 2;
|   v1.w.k = 5;
|   ok |= v1.i != 5;
| 
|   return ok;
| }
| 
configure:5379: result: unsupported
configure:5399: checking for icc option to enable C99 features
configure:5414: icc  -c -g -O2  conftest.c >&5
conftest.c(74): error: #error directive: "Compiler does not advertise C99 conformance"
  # error "Compiler does not advertise C99 conformance"
    ^

conftest.c(132): error: expected a ")"
  test_restrict (ccp restrict text)
                              ^

conftest.c(136): error: expected an expression
    for (unsigned int i = 0; *(text+i) != '\0'; ++i)
         ^

conftest.c(136): error: identifier "text" is undefined
    for (unsigned int i = 0; *(text+i) != '\0'; ++i)
                               ^

conftest.c(136): error: identifier "i" is undefined
    for (unsigned int i = 0; *(text+i) != '\0'; ++i)
                                    ^

conftest.c(193): error: expected a ";"
    char *restrict newvar = "Another string";
                   ^

conftest.c(203): error: expected an expression
    for (int i = 0; i < ia->datasize; ++i)
         ^

conftest.c(203): error: identifier "i" is undefined
    for (int i = 0; i < ia->datasize; ++i)
                    ^

conftest.c(222): error: identifier "newvar" is undefined
    ok |= (!success || bignum == 0LL || ubignum == 0uLL || newvar[0] == 'x'
                                                           ^

compilation aborted for conftest.c (code 2)
configure:5414: $? = 2
configure: failed program was:
| /* confdefs.h */
| #define PACKAGE_NAME "Specfem3D"
| #define PACKAGE_TARNAME "Specfem3D"
| #define PACKAGE_VERSION "4.1.1"
| #define PACKAGE_STRING "Specfem3D 4.1.1"
| #define PACKAGE_BUGREPORT "see the wiki"
| #define PACKAGE_URL ""
| /* end confdefs.h.  */
| 
| /* Does the compiler advertise C89 conformance?
|    Do not test the value of __STDC__, because some compilers set it to 0
|    while being otherwise adequately conformant. */
| #if !defined __STDC__
| # error "Compiler does not advertise C89 conformance"
| #endif
| 
| #include <stddef.h>
| #include <stdarg.h>
| struct stat;
| /* Most of the following tests are stolen from RCS 5.7 src/conf.sh.  */
| struct buf { int x; };
| struct buf * (*rcsopen) (struct buf *, struct stat *, int);
| static char *e (char **p, int i)
| {
|   return p[i];
| }
| static char *f (char * (*g) (char **, int), char **p, ...)
| {
|   char *s;
|   va_list v;
|   va_start (v,p);
|   s = g (p, va_arg (v,int));
|   va_end (v);
|   return s;
| }
| 
| /* C89 style stringification. */
| #define noexpand_stringify(a) #a
| const char *stringified = noexpand_stringify(arbitrary+token=sequence);
| 
| /* C89 style token pasting.  Exercises some of the corner cases that
|    e.g. old MSVC gets wrong, but not very hard. */
| #define noexpand_concat(a,b) a##b
| #define expand_concat(a,b) noexpand_concat(a,b)
| extern int vA;
| extern int vbee;
| #define aye A
| #define bee B
| int *pvA = &expand_concat(v,aye);
| int *pvbee = &noexpand_concat(v,bee);
| 
| /* OSF 4.0 Compaq cc is some sort of almost-ANSI by default.  It has
|    function prototypes and stuff, but not \xHH hex character constants.
|    These do not provoke an error unfortunately, instead are silently treated
|    as an "x".  The following induces an error, until -std is added to get
|    proper ANSI mode.  Curiously \x00 != x always comes out true, for an
|    array size at least.  It is necessary to write \x00 == 0 to get something
|    that is true only with -std.  */
| int osf4_cc_array ['\x00' == 0 ? 1 : -1];
| 
| /* IBM C 6 for AIX is almost-ANSI by default, but it replaces macro parameters
|    inside strings and character constants.  */
| #define FOO(x) 'x'
| int xlc6_cc_array[FOO(a) == 'x' ? 1 : -1];
| 
| int test (int i, double x);
| struct s1 {int (*f) (int a);};
| struct s2 {int (*f) (double a);};
| int pairnames (int, char **, int *(*)(struct buf *, struct stat *, int),
|                int, int);
| 
| /* Does the compiler advertise C99 conformance? */
| #if !defined __STDC_VERSION__ || __STDC_VERSION__ < 199901L
| # error "Compiler does not advertise C99 conformance"
| #endif
| 
| // See if C++-style comments work.
| 
| #include <stdbool.h>
| extern int puts (const char *);
| extern int printf (const char *, ...);
| extern int dprintf (int, const char *, ...);
| extern void *malloc (size_t);
| extern void free (void *);
| 
| // Check varargs macros.  These examples are taken from C99 6.10.3.5.
| // dprintf is used instead of fprintf to avoid needing to declare
| // FILE and stderr.
| #define debug(...) dprintf (2, __VA_ARGS__)
| #define showlist(...) puts (#__VA_ARGS__)
| #define report(test,...) ((test) ? puts (#test) : printf (__VA_ARGS__))
| static void
| test_varargs_macros (void)
| {
|   int x = 1234;
|   int y = 5678;
|   debug ("Flag");
|   debug ("X = %d\n", x);
|   showlist (The first, second, and third items.);
|   report (x>y, "x is %d but y is %d", x, y);
| }
| 
| // Check long long types.
| #define BIG64 18446744073709551615ull
| #define BIG32 4294967295ul
| #define BIG_OK (BIG64 / BIG32 == 4294967297ull && BIG64 % BIG32 == 0)
| #if !BIG_OK
|   #error "your preprocessor is broken"
| #endif
| #if BIG_OK
| #else
|   #error "your preprocessor is broken"
| #endif
| static long long int bignum = -9223372036854775807LL;
| static unsigned long long int ubignum = BIG64;
| 
| struct incomplete_array
| {
|   int datasize;
|   double data[];
| };
| 
| struct named_init {
|   int number;
|   const wchar_t *name;
|   double average;
| };
| 
| typedef const char *ccp;
| 
| static inline int
| test_restrict (ccp restrict text)
| {
|   // Iterate through items via the restricted pointer.
|   // Also check for declarations in for loops.
|   for (unsigned int i = 0; *(text+i) != '\0'; ++i)
|     continue;
|   return 0;
| }
| 
| // Check varargs and va_copy.
| static bool
| test_varargs (const char *format, ...)
| {
|   va_list args;
|   va_start (args, format);
|   va_list args_copy;
|   va_copy (args_copy, args);
| 
|   const char *str = "";
|   int number = 0;
|   float fnumber = 0;
| 
|   while (*format)
|     {
|       switch (*format++)
| 	{
| 	case 's': // string
| 	  str = va_arg (args_copy, const char *);
| 	  break;
| 	case 'd': // int
| 	  number = va_arg (args_copy, int);
| 	  break;
| 	case 'f': // float
| 	  fnumber = va_arg (args_copy, double);
| 	  break;
| 	default:
| 	  break;
| 	}
|     }
|   va_end (args_copy);
|   va_end (args);
| 
|   return *str && number && fnumber;
| }
| 
| 
| int
| main (int argc, char **argv)
| {
|   int ok = 0;
|   
| ok |= (argc == 0 || f (e, argv, 0) != argv[0] || f (e, argv, 1) != argv[1]);
| 
|   
|   // Check bool.
|   _Bool success = false;
|   success |= (argc != 0);
| 
|   // Check restrict.
|   if (test_restrict ("String literal") == 0)
|     success = true;
|   char *restrict newvar = "Another string";
| 
|   // Check varargs.
|   success &= test_varargs ("s, d' f .", "string", 65, 34.234);
|   test_varargs_macros ();
| 
|   // Check flexible array members.
|   struct incomplete_array *ia =
|     malloc (sizeof (struct incomplete_array) + (sizeof (double) * 10));
|   ia->datasize = 10;
|   for (int i = 0; i < ia->datasize; ++i)
|     ia->data[i] = i * 1.234;
|   // Work around memory leak warnings.
|   free (ia);
| 
|   // Check named initializers.
|   struct named_init ni = {
|     .number = 34,
|     .name = L"Test wide string",
|     .average = 543.34343,
|   };
| 
|   ni.number = 58;
| 
|   int dynamic_array[ni.number];
|   dynamic_array[0] = argv[0][0];
|   dynamic_array[ni.number - 1] = 543;
| 
|   // work around unused variable warnings
|   ok |= (!success || bignum == 0LL || ubignum == 0uLL || newvar[0] == 'x'
| 	 || dynamic_array[ni.number - 1] != 543);
| 
|   return ok;
| }
| 
configure:5414: icc -std=gnu99 -c -g -O2  conftest.c >&5
configure:5414: $? = 0
configure:5436: result: -std=gnu99
configure:5508: checking for dummy main to link with Fortran libraries
configure:5543: icc -std=gnu99 -o conftest -g -O2   conftest.c   -L/apps/intel/composer_xe_2015.2.164/compiler/lib/intel64 -L/apps/intel/composer_xe_2015.2.164/ipp/../compiler/lib/intel64 -L/apps/intel/composer_xe_2015.2.164/ipp/lib/intel64 -L/apps/intel/composer_xe_2015.2.164/mkl/lib/intel64 -L/apps/intel/composer_xe_2015.2.164/tbb/lib/intel64/gcc4.4 -L/data/apps/intel/composer_xe_2015.2.164/compiler/lib/intel64 -L/usr/lib/gcc/x86_64-redhat-linux/4.4.7/ -L/usr/lib/gcc/x86_64-redhat-linux/4.4.7/../../../../lib64 -L/usr/lib/gcc/x86_64-redhat-linux/4.4.7/../../../../lib64/ -L/lib/../lib64 -L/lib/../lib64/ -L/usr/lib/../lib64 -L/usr/lib/../lib64/ -L/apps/intel/composer_xe_2015.2.164/compiler/lib/intel64/ -L/apps/intel/composer_xe_2015.2.164/ipp/../compiler/lib/intel64/ -L/apps/intel/composer_xe_2015.2.164/ipp/lib/intel64/ -L/apps/intel/composer_xe_2015.2.164/mkl/lib/intel64/ -L/apps/intel/composer_xe_2015.2.164/tbb/lib/intel64/gcc4.4/ -L/usr/lib/gcc/x86_64-redhat-linux/4.4.7/../../../ -L/lib64 -L/lib/ -L/usr/lib64 -L/usr/lib -lifport -lifcore -limf -lsvml -lm -lipgo -lirc -lpthread -lirc_s -ldl >&5
configure:5543: $? = 0
configure:5592: result: none
configure:5625: checking for Fortran name-mangling scheme
configure:5639: ifort -c -g  conftest.f >&5
configure:5639: $? = 0
configure:5684: icc -std=gnu99 -o conftest -g -O2   conftest.c cfortran_test.o   -L/apps/intel/composer_xe_2015.2.164/compiler/lib/intel64 -L/apps/intel/composer_xe_2015.2.164/ipp/../compiler/lib/intel64 -L/apps/intel/composer_xe_2015.2.164/ipp/lib/intel64 -L/apps/intel/composer_xe_2015.2.164/mkl/lib/intel64 -L/apps/intel/composer_xe_2015.2.164/tbb/lib/intel64/gcc4.4 -L/data/apps/intel/composer_xe_2015.2.164/compiler/lib/intel64 -L/usr/lib/gcc/x86_64-redhat-linux/4.4.7/ -L/usr/lib/gcc/x86_64-redhat-linux/4.4.7/../../../../lib64 -L/usr/lib/gcc/x86_64-redhat-linux/4.4.7/../../../../lib64/ -L/lib/../lib64 -L/lib/../lib64/ -L/usr/lib/../lib64 -L/usr/lib/../lib64/ -L/apps/intel/composer_xe_2015.2.164/compiler/lib/intel64/ -L/apps/intel/composer_xe_2015.2.164/ipp/../compiler/lib/intel64/ -L/apps/intel/composer_xe_2015.2.164/ipp/lib/intel64/ -L/apps/intel/composer_xe_2015.2.164/mkl/lib/intel64/ -L/apps/intel/composer_xe_2015.2.164/tbb/lib/intel64/gcc4.4/ -L/usr/lib/gcc/x86_64-redhat-linux/4.4.7/../../../ -L/lib64 -L/lib/ -L/usr/lib64 -L/usr/lib -lifport -lifcore -limf -lsvml -lm -lipgo -lirc -lpthread -lirc_s -ldl >&5
/tmp/iccKGRu1w.o: In function `main':
/data/home/fderose/dati/specfem3d/conftest.c:31: undefined reference to `foobar'
configure:5684: $? = 1
configure: failed program was:
| /* confdefs.h */
| #define PACKAGE_NAME "Specfem3D"
| #define PACKAGE_TARNAME "Specfem3D"
| #define PACKAGE_VERSION "4.1.1"
| #define PACKAGE_STRING "Specfem3D 4.1.1"
| #define PACKAGE_BUGREPORT "see the wiki"
| #define PACKAGE_URL ""
| /* end confdefs.h.  */
| 
| /* Override any GCC internal prototype to avoid an error.
|    Use char because int might match the return type of a GCC
|    builtin and then its argument prototype would still apply.
|    The 'extern "C"' is for builds by C++ compilers;
|    although this is not generally supported in C code supporting it here
|    has little cost and some practical benefit (sr 110532).  */
| #ifdef __cplusplus
| extern "C"
| #endif
| char foobar (void);
| #ifdef FC_DUMMY_MAIN
| #ifndef FC_DUMMY_MAIN_EQ_F77
| #  ifdef __cplusplus
|      extern "C"
| #  endif
|    int FC_DUMMY_MAIN() { return 1; }
| #endif
| #endif
| int
| main (void)
| {
| return foobar ();
|   ;
|   return 0;
| }
configure:5684: icc -std=gnu99 -o conftest -g -O2   conftest.c cfortran_test.o   -L/apps/intel/composer_xe_2015.2.164/compiler/lib/intel64 -L/apps/intel/composer_xe_2015.2.164/ipp/../compiler/lib/intel64 -L/apps/intel/composer_xe_2015.2.164/ipp/lib/intel64 -L/apps/intel/composer_xe_2015.2.164/mkl/lib/intel64 -L/apps/intel/composer_xe_2015.2.164/tbb/lib/intel64/gcc4.4 -L/data/apps/intel/composer_xe_2015.2.164/compiler/lib/intel64 -L/usr/lib/gcc/x86_64-redhat-linux/4.4.7/ -L/usr/lib/gcc/x86_64-redhat-linux/4.4.7/../../../../lib64 -L/usr/lib/gcc/x86_64-redhat-linux/4.4.7/../../../../lib64/ -L/lib/../lib64 -L/lib/../lib64/ -L/usr/lib/../lib64 -L/usr/lib/../lib64/ -L/apps/intel/composer_xe_2015.2.164/compiler/lib/intel64/ -L/apps/intel/composer_xe_2015.2.164/ipp/../compiler/lib/intel64/ -L/apps/intel/composer_xe_2015.2.164/ipp/lib/intel64/ -L/apps/intel/composer_xe_2015.2.164/mkl/lib/intel64/ -L/apps/intel/composer_xe_2015.2.164/tbb/lib/intel64/gcc4.4/ -L/usr/lib/gcc/x86_64-redhat-linux/4.4.7/../../../ -L/lib64 -L/lib/ -L/usr/lib64 -L/usr/lib -lifport -lifcore -limf -lsvml -lm -lipgo -lirc -lpthread -lirc_s -ldl >&5
configure:5684: $? = 0
configure:5746: icc -std=gnu99 -o conftest -g -O2   conftest.c cfortran_test.o   -L/apps/intel/composer_xe_2015.2.164/compiler/lib/intel64 -L/apps/intel/composer_xe_2015.2.164/ipp/../compiler/lib/intel64 -L/apps/intel/composer_xe_2015.2.164/ipp/lib/intel64 -L/apps/intel/composer_xe_2015.2.164/mkl/lib/intel64 -L/apps/intel/composer_xe_2015.2.164/tbb/lib/intel64/gcc4.4 -L/data/apps/intel/composer_xe_2015.2.164/compiler/lib/intel64 -L/usr/lib/gcc/x86_64-redhat-linux/4.4.7/ -L/usr/lib/gcc/x86_64-redhat-linux/4.4.7/../../../../lib64 -L/usr/lib/gcc/x86_64-redhat-linux/4.4.7/../../../../lib64/ -L/lib/../lib64 -L/lib/../lib64/ -L/usr/lib/../lib64 -L/usr/lib/../lib64/ -L/apps/intel/composer_xe_2015.2.164/compiler/lib/intel64/ -L/apps/intel/composer_xe_2015.2.164/ipp/../compiler/lib/intel64/ -L/apps/intel/composer_xe_2015.2.164/ipp/lib/intel64/ -L/apps/intel/composer_xe_2015.2.164/mkl/lib/intel64/ -L/apps/intel/composer_xe_2015.2.164/tbb/lib/intel64/gcc4.4/ -L/usr/lib/gcc/x86_64-redhat-linux/4.4.7/../../../ -L/lib64 -L/lib/ -L/usr/lib64 -L/usr/lib -lifport -lifcore -limf -lsvml -lm -lipgo -lirc -lpthread -lirc_s -ldl >&5
configure:5746: $? = 0
configure:5791: result: lower case, underscore, no extra underscore
configure:5866: checking for Fortran flag to compile .f90 files
configure:5887: ifort -c -g  conftest.f90 >&5
configure:5887: $? = 0
configure:5898: result: none
configure:5923: checking for Fortran flag needed to accept free-form source
configure:5943: ifort -c -g  conftest.f90 >&5
configure:5943: $? = 0
configure:5954: result: none
configure:5979: checking for Fortran flag to compile preprocessed .F files
configure:6005: ifort -c -g  conftest.F >&5
configure:6005: $? = 0
configure:6016: ifort -c -g  conftest.F >&5
conftest.F(4): #error: can't find include file: ac_nonexistent.h
configure:6016: $? = 1
configure: failed program was:
|       program main
| 
| #if 1
| #include <ac_nonexistent.h>
|       choke me
| #endif
|       end
configure:6032: result: none
configure:6053: checking how to define symbols for preprocessed Fortran
configure:6076: ifort -c -g -DFOOBAR -DZORK=42  conftest.F >&5
configure:6076: $? = 0
configure:6087: result: -D
configure:6107: checking for Fortran flag to compile preprocessed .F90 files
configure:6133: ifort -c -g  conftest.F90 >&5
configure:6133: $? = 0
configure:6144: ifort -c -g  conftest.F90 >&5
conftest.F90(4): #error: can't find include file: ac_nonexistent.h
configure:6144: $? = 1
configure: failed program was:
|       program main
| 
| #if 1
| #include <ac_nonexistent.h>
|       choke me
| #endif
|       end
configure:6160: result: none
configure:6235: checking for gcc
configure:6268: result: icc
configure:6627: checking for C compiler version
configure:6636: icc --version >&5
icc (ICC) 15.0.2 20150121
Copyright (C) 1985-2015 Intel Corporation.  All rights reserved.

configure:6647: $? = 0
configure:6636: icc -v >&5
icc version 15.0.2 (gcc version 4.4.7 compatibility)
configure:6647: $? = 0
configure:6636: icc -V >&5
Intel(R) C Intel(R) 64 Compiler XE for applications running on Intel(R) 64, Version 15.0.2.164 Build 20150121
Copyright (C) 1985-2015 Intel Corporation.  All rights reserved.

configure:6647: $? = 0
configure:6636: icc -qversion >&5
icc: command line warning #10006: ignoring unknown option '-qversion'
icc: command line error: no files specified; for help type "icc -help"
configure:6647: $? = 1
configure:6636: icc -version >&5
icc: command line warning #10006: ignoring unknown option '-version'
icc: command line error: no files specified; for help type "icc -help"
configure:6647: $? = 1
configure:6651: checking whether the compiler supports GNU C
configure:6691: result: yes
configure:6702: checking whether icc accepts -g
configure:6794: result: yes
configure:6814: checking for icc option to enable C11 features
configure:6843: result: unsupported
configure:6863: checking for icc option to enable C99 features
configure:6900: result: -std=gnu99
configure:7031: checking for scotchfarchinit  in -lscotch
configure:7044: ifort -o conftest -g  -L/usr/lib  conftest.F90 -lscotch -lscotcherr  >&5
ld: cannot find -lscotch
configure:7044: $? = 1
configure: failed program was:
|       program main
|       call scotchfarchinit
|       end
configure:7056: result: no
configure:7079: checking whether Scotch is usable
configure:7096: result: no, using bundled scotch instead
configure:7104: checking for flex
configure:7125: found /usr/bin/flex
configure:7137: result: flex
configure:7186: checking for lex output file root
configure:7199: flex conftest.l
configure:7203: $? = 0
configure:7212: result: lex.yy
configure:7227: checking for lex library
configure:7251: ifort -o conftest -g   conftest.F90  >&5
features.h(191): #error: #if: syntax error.
features.h(197): #error: #if: syntax error.
features.h(218): #error: #if: syntax error.
features.h(222): #error: #if: syntax error.
features.h(226): #error: #if: syntax error.
features.h(230): #error: #if: syntax error.
features.h(234): #error: #if: syntax error.
features.h(242): #error: #if: syntax error.
features.h(354): #error: #if: syntax error.
cdefs.h(158): #error: #if: syntax error.
cdefs.h(356): #error: #if: syntax error.
stddef.h(84): #error: #if: syntax error.
stddef.h(84): #error: #if: syntax error.
stddef.h(84): #error: #if: syntax error.
stdarg.h(120): #error: #if: syntax error.
libio.h(318): #error: #if: syntax error.
stddef.h(84): #error: #if: syntax error.
stddef.h(84): #error: #if: syntax error.
stddef.h(84): #error: #if: syntax error.
stddef.h(84): #error: #if: syntax error.
lex.yy.c(33): #error: #if: syntax error.
stdint.h(43): #error: #if: syntax error.
stdint.h(75): #error: unknown fpp directive.
stddef.h(84): #error: #if: syntax error.
stddef.h(84): #error: #if: syntax error.

conftest.l(16): #error: incomplete macro call yyless.

lex.yy.c(927): #error: incomplete macro call YY_FATAL_ERROR.

lex.yy.c(948): #error: incomplete macro call YY_FATAL_ERROR.

lex.yy.c(992): #error: incomplete macro call YY_FATAL_ERROR.

lex.yy.c(1001): #error: incomplete macro call YY_INPUT.
configure:7251: $? = 30
configure: failed program was:
| 
| #line 3 "lex.yy.c"
| 
| #define  YY_INT_ALIGNED short int
| 
| /* A lexical scanner generated by flex */
| 
| #define FLEX_SCANNER
| #define YY_FLEX_MAJOR_VERSION 2
| #define YY_FLEX_MINOR_VERSION 5
| #define YY_FLEX_SUBMINOR_VERSION 35
| #if YY_FLEX_SUBMINOR_VERSION > 0
| #define FLEX_BETA
| #endif
| 
| /* First, we deal with  platform-specific or compiler-specific issues. */
| 
| /* begin standard C headers. */
| #include <stdio.h>
| #include <string.h>
| #include <errno.h>
| #include <stdlib.h>
| 
| /* end standard C headers. */
| 
| /* flex integer type definitions */
| 
| #ifndef FLEXINT_H
| #define FLEXINT_H
| 
| /* C99 systems have <inttypes.h>. Non-C99 systems may or may not. */
| 
| #if defined (__STDC_VERSION__) && __STDC_VERSION__ >= 199901L
| 
| /* C99 says to define __STDC_LIMIT_MACROS before including stdint.h,
|  * if you want the limit (max/min) macros for int types. 
|  */
| #ifndef __STDC_LIMIT_MACROS
| #define __STDC_LIMIT_MACROS 1
| #endif
| 
| #include <inttypes.h>
| typedef int8_t flex_int8_t;
| typedef uint8_t flex_uint8_t;
| typedef int16_t flex_int16_t;
| typedef uint16_t flex_uint16_t;
| typedef int32_t flex_int32_t;
| typedef uint32_t flex_uint32_t;
| #else
| typedef signed char flex_int8_t;
| typedef short int flex_int16_t;
| typedef int flex_int32_t;
| typedef unsigned char flex_uint8_t; 
| typedef unsigned short int flex_uint16_t;
| typedef unsigned int flex_uint32_t;
| #endif /* ! C99 */
| 
| /* Limits of integral types. */
| #ifndef INT8_MIN
| #define INT8_MIN               (-128)
| #endif
| #ifndef INT16_MIN
| #define INT16_MIN              (-32767-1)
| #endif
| #ifndef INT32_MIN
| #define INT32_MIN              (-2147483647-1)
| #endif
| #ifndef INT8_MAX
| #define INT8_MAX               (127)
| #endif
| #ifndef INT16_MAX
| #define INT16_MAX              (32767)
| #endif
| #ifndef INT32_MAX
| #define INT32_MAX              (2147483647)
| #endif
| #ifndef UINT8_MAX
| #define UINT8_MAX              (255U)
| #endif
| #ifndef UINT16_MAX
| #define UINT16_MAX             (65535U)
| #endif
| #ifndef UINT32_MAX
| #define UINT32_MAX             (4294967295U)
| #endif
| 
| #endif /* ! FLEXINT_H */
| 
| #ifdef __cplusplus
| 
| /* The "const" storage-class-modifier is valid. */
| #define YY_USE_CONST
| 
| #else	/* ! __cplusplus */
| 
| /* C99 requires __STDC__ to be defined as 1. */
| #if defined (__STDC__)
| 
| #define YY_USE_CONST
| 
| #endif	/* defined (__STDC__) */
| #endif	/* ! __cplusplus */
| 
| #ifdef YY_USE_CONST
| #define yyconst const
| #else
| #define yyconst
| #endif
| 
| /* Returned upon end-of-file. */
| #define YY_NULL 0
| 
| /* Promotes a possibly negative, possibly signed char to an unsigned
|  * integer for use as an array index.  If the signed char is negative,
|  * we want to instead treat it as an 8-bit unsigned char, hence the
|  * double cast.
|  */
| #define YY_SC_TO_UI(c) ((unsigned int) (unsigned char) c)
| 
| /* Enter a start condition.  This macro really ought to take a parameter,
|  * but we do it the disgusting crufty way forced on us by the ()-less
|  * definition of BEGIN.
|  */
| #define BEGIN (yy_start) = 1 + 2 *
| 
| /* Translate the current start state into a value that can be later handed
|  * to BEGIN to return to the state.  The YYSTATE alias is for lex
|  * compatibility.
|  */
| #define YY_START (((yy_start) - 1) / 2)
| #define YYSTATE YY_START
| 
| /* Action number for EOF rule of a given start state. */
| #define YY_STATE_EOF(state) (YY_END_OF_BUFFER + state + 1)
| 
| /* Special action meaning "start processing a new file". */
| #define YY_NEW_FILE yyrestart(yyin  )
| 
| #define YY_END_OF_BUFFER_CHAR 0
| 
| /* Size of default input buffer. */
| #ifndef YY_BUF_SIZE
| #define YY_BUF_SIZE 16384
| #endif
| 
| /* The state buf must be large enough to hold one state per character in the main buffer.
|  */
| #define YY_STATE_BUF_SIZE   ((YY_BUF_SIZE + 2) * sizeof(yy_state_type))
| 
| #ifndef YY_TYPEDEF_YY_BUFFER_STATE
| #define YY_TYPEDEF_YY_BUFFER_STATE
| typedef struct yy_buffer_state *YY_BUFFER_STATE;
| #endif
| 
| extern int yyleng;
| 
| extern FILE *yyin, *yyout;
| 
| #define EOB_ACT_CONTINUE_SCAN 0
| #define EOB_ACT_END_OF_FILE 1
| #define EOB_ACT_LAST_MATCH 2
| 
|     #define YY_LESS_LINENO(n)
|     
| /* Return all but the first "n" matched characters back to the input stream. */
| #define yyless(n) \
| 	do \
| 		{ \
| 		/* Undo effects of setting up yytext. */ \
|         int yyless_macro_arg = (n); \
|         YY_LESS_LINENO(yyless_macro_arg);\
| 		*yy_cp = (yy_hold_char); \
| 		YY_RESTORE_YY_MORE_OFFSET \
| 		(yy_c_buf_p) = yy_cp = yy_bp + yyless_macro_arg - YY_MORE_ADJ; \
| 		YY_DO_BEFORE_ACTION; /* set up yytext again */ \
| 		} \
| 	while ( 0 )
| 
| #define unput(c) yyunput( c, (yytext_ptr)  )
| 
| #ifndef YY_TYPEDEF_YY_SIZE_T
| #define YY_TYPEDEF_YY_SIZE_T
| typedef size_t yy_size_t;
| #endif
| 
| #ifndef YY_STRUCT_YY_BUFFER_STATE
| #define YY_STRUCT_YY_BUFFER_STATE
| struct yy_buffer_state
| 	{
| 	FILE *yy_input_file;
| 
| 	char *yy_ch_buf;		/* input buffer */
| 	char *yy_buf_pos;		/* current position in input buffer */
| 
| 	/* Size of input buffer in bytes, not including room for EOB
| 	 * characters.
| 	 */
| 	yy_size_t yy_buf_size;
| 
| 	/* Number of characters read into yy_ch_buf, not including EOB
| 	 * characters.
| 	 */
| 	int yy_n_chars;
| 
| 	/* Whether we "own" the buffer - i.e., we know we created it,
| 	 * and can realloc() it to grow it, and should free() it to
| 	 * delete it.
| 	 */
| 	int yy_is_our_buffer;
| 
| 	/* Whether this is an "interactive" input source; if so, and
| 	 * if we're using stdio for input, then we want to use getc()
| 	 * instead of fread(), to make sure we stop fetching input after
| 	 * each newline.
| 	 */
| 	int yy_is_interactive;
| 
| 	/* Whether we're considered to be at the beginning of a line.
| 	 * If so, '^' rules will be active on the next match, otherwise
| 	 * not.
| 	 */
| 	int yy_at_bol;
| 
|     int yy_bs_lineno; /**< The line count. */
|     int yy_bs_column; /**< The column count. */
|     
| 	/* Whether to try to fill the input buffer when we reach the
| 	 * end of it.
| 	 */
| 	int yy_fill_buffer;
| 
| 	int yy_buffer_status;
| 
| #define YY_BUFFER_NEW 0
| #define YY_BUFFER_NORMAL 1
| 	/* When an EOF's been seen but there's still some text to process
| 	 * then we mark the buffer as YY_EOF_PENDING, to indicate that we
| 	 * shouldn't try reading from the input source any more.  We might
| 	 * still have a bunch of tokens to match, though, because of
| 	 * possible backing-up.
| 	 *
| 	 * When we actually see the EOF, we change the status to "new"
| 	 * (via yyrestart()), so that the user can continue scanning by
| 	 * just pointing yyin at a new input file.
| 	 */
| #define YY_BUFFER_EOF_PENDING 2
| 
| 	};
| #endif /* !YY_STRUCT_YY_BUFFER_STATE */
| 
| /* Stack of input buffers. */
| static size_t yy_buffer_stack_top = 0; /**< index of top of stack. */
| static size_t yy_buffer_stack_max = 0; /**< capacity of stack. */
| static YY_BUFFER_STATE * yy_buffer_stack = 0; /**< Stack as an array. */
| 
| /* We provide macros for accessing buffer states in case in the
|  * future we want to put the buffer states in a more general
|  * "scanner state".
|  *
|  * Returns the top of the stack, or NULL.
|  */
| #define YY_CURRENT_BUFFER ( (yy_buffer_stack) \
|                           ? (yy_buffer_stack)[(yy_buffer_stack_top)] \
|                           : NULL)
| 
| /* Same as previous macro, but useful when we know that the buffer stack is not
|  * NULL or when we need an lvalue. For internal use only.
|  */
| #define YY_CURRENT_BUFFER_LVALUE (yy_buffer_stack)[(yy_buffer_stack_top)]
| 
| /* yy_hold_char holds the character lost when yytext is formed. */
| static char yy_hold_char;
| static int yy_n_chars;		/* number of characters read into yy_ch_buf */
| int yyleng;
| 
| /* Points to current character in buffer. */
| static char *yy_c_buf_p = (char *) 0;
| static int yy_init = 0;		/* whether we need to initialize */
| static int yy_start = 0;	/* start state number */
| 
| /* Flag which is used to allow yywrap()'s to do buffer switches
|  * instead of setting up a fresh yyin.  A bit of a hack ...
|  */
| static int yy_did_buffer_switch_on_eof;
| 
| void yyrestart (FILE *input_file  );
| void yy_switch_to_buffer (YY_BUFFER_STATE new_buffer  );
| YY_BUFFER_STATE yy_create_buffer (FILE *file,int size  );
| void yy_delete_buffer (YY_BUFFER_STATE b  );
| void yy_flush_buffer (YY_BUFFER_STATE b  );
| void yypush_buffer_state (YY_BUFFER_STATE new_buffer  );
| void yypop_buffer_state (void );
| 
| static void yyensure_buffer_stack (void );
| static void yy_load_buffer_state (void );
| static void yy_init_buffer (YY_BUFFER_STATE b,FILE *file  );
| 
| #define YY_FLUSH_BUFFER yy_flush_buffer(YY_CURRENT_BUFFER )
| 
| YY_BUFFER_STATE yy_scan_buffer (char *base,yy_size_t size  );
| YY_BUFFER_STATE yy_scan_string (yyconst char *yy_str  );
| YY_BUFFER_STATE yy_scan_bytes (yyconst char *bytes,int len  );
| 
| void *yyalloc (yy_size_t  );
| void *yyrealloc (void *,yy_size_t  );
| void yyfree (void *  );
| 
| #define yy_new_buffer yy_create_buffer
| 
| #define yy_set_interactive(is_interactive) \
| 	{ \
| 	if ( ! YY_CURRENT_BUFFER ){ \
|         yyensure_buffer_stack (); \
| 		YY_CURRENT_BUFFER_LVALUE =    \
|             yy_create_buffer(yyin,YY_BUF_SIZE ); \
| 	} \
| 	YY_CURRENT_BUFFER_LVALUE->yy_is_interactive = is_interactive; \
| 	}
| 
| #define yy_set_bol(at_bol) \
| 	{ \
| 	if ( ! YY_CURRENT_BUFFER ){\
|         yyensure_buffer_stack (); \
| 		YY_CURRENT_BUFFER_LVALUE =    \
|             yy_create_buffer(yyin,YY_BUF_SIZE ); \
| 	} \
| 	YY_CURRENT_BUFFER_LVALUE->yy_at_bol = at_bol; \
| 	}
| 
| #define YY_AT_BOL() (YY_CURRENT_BUFFER_LVALUE->yy_at_bol)
| 
| /* Begin user sect3 */
| 
| typedef unsigned char YY_CHAR;
| 
| FILE *yyin = (FILE *) 0, *yyout = (FILE *) 0;
| 
| typedef int yy_state_type;
| 
| extern int yylineno;
| 
| int yylineno = 1;
| 
| extern char *yytext;
| #define yytext_ptr yytext
| 
| static yy_state_type yy_get_previous_state (void );
| static yy_state_type yy_try_NUL_trans (yy_state_type current_state  );
| static int yy_get_next_buffer (void );
| static void yy_fatal_error (yyconst char msg[]  );
| 
| /* Done after the current pattern has been matched and before the
|  * corresponding action - sets up yytext.
|  */
| #define YY_DO_BEFORE_ACTION \
| 	(yytext_ptr) = yy_bp; \
| 	(yytext_ptr) -= (yy_more_len); \
| 	yyleng = (size_t) (yy_cp - (yytext_ptr)); \
| 	(yy_hold_char) = *yy_cp; \
| 	*yy_cp = '\0'; \
| 	(yy_c_buf_p) = yy_cp;
| 
| #define YY_NUM_RULES 8
| #define YY_END_OF_BUFFER 9
| /* This struct is not used in this scanner,
|    but its presence is necessary. */
| struct yy_trans_info
| 	{
| 	flex_int32_t yy_verify;
| 	flex_int32_t yy_nxt;
| 	};
| static yyconst flex_int16_t yy_acclist[23] =
|     {   0,
|         9,    7,    8,    8,    1,    7,    8,    2,    7,    8,
|         3,    7,    8,    4,    7,    8,    5,    7,    8,    6,
|         7,    8
|     } ;
| 
| static yyconst flex_int16_t yy_accept[14] =
|     {   0,
|         1,    1,    1,    2,    4,    5,    8,   11,   14,   17,
|        20,   23,   23
|     } ;
| 
| static yyconst flex_int32_t yy_ec[256] =
|     {   0,
|         1,    1,    1,    1,    1,    1,    1,    1,    1,    2,
|         1,    1,    1,    1,    1,    1,    1,    1,    1,    1,
|         1,    1,    1,    1,    1,    1,    1,    1,    1,    1,
|         1,    1,    1,    1,    1,    1,    1,    1,    1,    1,
|         1,    1,    1,    1,    1,    1,    1,    1,    1,    1,
|         1,    1,    1,    1,    1,    1,    1,    1,    1,    1,
|         1,    1,    1,    1,    1,    1,    1,    1,    1,    1,
|         1,    1,    1,    1,    1,    1,    1,    1,    1,    1,
|         1,    1,    1,    1,    1,    1,    1,    1,    1,    1,
|         1,    1,    1,    1,    1,    1,    3,    4,    5,    6,
| 
|         7,    8,    1,    1,    1,    1,    1,    1,    1,    1,
|         1,    1,    1,    1,    1,    1,    1,    1,    1,    1,
|         1,    1,    1,    1,    1,    1,    1,    1,    1,    1,
|         1,    1,    1,    1,    1,    1,    1,    1,    1,    1,
|         1,    1,    1,    1,    1,    1,    1,    1,    1,    1,
|         1,    1,    1,    1,    1,    1,    1,    1,    1,    1,
|         1,    1,    1,    1,    1,    1,    1,    1,    1,    1,
|         1,    1,    1,    1,    1,    1,    1,    1,    1,    1,
|         1,    1,    1,    1,    1,    1,    1,    1,    1,    1,
|         1,    1,    1,    1,    1,    1,    1,    1,    1,    1,
| 
|         1,    1,    1,    1,    1,    1,    1,    1,    1,    1,
|         1,    1,    1,    1,    1,    1,    1,    1,    1,    1,
|         1,    1,    1,    1,    1,    1,    1,    1,    1,    1,
|         1,    1,    1,    1,    1,    1,    1,    1,    1,    1,
|         1,    1,    1,    1,    1,    1,    1,    1,    1,    1,
|         1,    1,    1,    1,    1
|     } ;
| 
| static yyconst flex_int32_t yy_meta[9] =
|     {   0,
|         1,    1,    1,    1,    1,    1,    1,    1
|     } ;
| 
| static yyconst flex_int16_t yy_base[13] =
|     {   0,
|         0,    0,    9,   10,   10,   10,   10,   10,   10,   10,
|        10,   10
|     } ;
| 
| static yyconst flex_int16_t yy_def[13] =
|     {   0,
|        12,    1,   12,   12,   12,   12,   12,   12,   12,   12,
|        12,    0
|     } ;
| 
| static yyconst flex_int16_t yy_nxt[19] =
|     {   0,
|         4,    5,    6,    7,    8,    9,   10,   11,   12,    3,
|        12,   12,   12,   12,   12,   12,   12,   12
|     } ;
| 
| static yyconst flex_int16_t yy_chk[19] =
|     {   0,
|         1,    1,    1,    1,    1,    1,    1,    1,    3,   12,
|        12,   12,   12,   12,   12,   12,   12,   12
|     } ;
| 
| extern int yy_flex_debug;
| int yy_flex_debug = 0;
| 
| static yy_state_type *yy_state_buf=0, *yy_state_ptr=0;
| static char *yy_full_match;
| static int yy_lp;
| #define REJECT \
| { \
| *yy_cp = (yy_hold_char); /* undo effects of setting up yytext */ \
| yy_cp = (yy_full_match); /* restore poss. backed-over text */ \
| ++(yy_lp); \
| goto find_rule; \
| }
| 
| static int yy_more_flag = 0;
| static int yy_more_len = 0;
| #define yymore() ((yy_more_flag) = 1)
| #define YY_MORE_ADJ (yy_more_len)
| #define YY_RESTORE_YY_MORE_OFFSET
| char *yytext;
| #line 1 "conftest.l"
| #line 2 "conftest.l"
| #ifdef __cplusplus
| extern "C"
| #endif
| int yywrap(void);
| #line 473 "lex.yy.c"
| 
| #define INITIAL 0
| 
| #ifndef YY_NO_UNISTD_H
| /* Special case for "unistd.h", since it is non-ANSI. We include it way
|  * down here because we want the user's section 1 to have been scanned first.
|  * The user has a chance to override it with an option.
|  */
| #include <unistd.h>
| #endif
| 
| #ifndef YY_EXTRA_TYPE
| #define YY_EXTRA_TYPE void *
| #endif
| 
| static int yy_init_globals (void );
| 
| /* Accessor methods to globals.
|    These are made visible to non-reentrant scanners for convenience. */
| 
| int yylex_destroy (void );
| 
| int yyget_debug (void );
| 
| void yyset_debug (int debug_flag  );
| 
| YY_EXTRA_TYPE yyget_extra (void );
| 
| void yyset_extra (YY_EXTRA_TYPE user_defined  );
| 
| FILE *yyget_in (void );
| 
| void yyset_in  (FILE * in_str  );
| 
| FILE *yyget_out (void );
| 
| void yyset_out  (FILE * out_str  );
| 
| int yyget_leng (void );
| 
| char *yyget_text (void );
| 
| int yyget_lineno (void );
| 
| void yyset_lineno (int line_number  );
| 
| /* Macros after this point can all be overridden by user definitions in
|  * section 1.
|  */
| 
| #ifndef YY_SKIP_YYWRAP
| #ifdef __cplusplus
| extern "C" int yywrap (void );
| #else
| extern int yywrap (void );
| #endif
| #endif
| 
|     static void yyunput (int c,char *buf_ptr  );
|     
| #ifndef yytext_ptr
| static void yy_flex_strncpy (char *,yyconst char *,int );
| #endif
| 
| #ifdef YY_NEED_STRLEN
| static int yy_flex_strlen (yyconst char * );
| #endif
| 
| #ifndef YY_NO_INPUT
| 
| #ifdef __cplusplus
| static int yyinput (void );
| #else
| static int input (void );
| #endif
| 
| #endif
| 
| /* Amount of stuff to slurp up with each read. */
| #ifndef YY_READ_BUF_SIZE
| #define YY_READ_BUF_SIZE 8192
| #endif
| 
| /* Copy whatever the last rule matched to the standard output. */
| #ifndef ECHO
| /* This used to be an fputs(), but since the string might contain NUL's,
|  * we now use fwrite().
|  */
| #define ECHO do { if (fwrite( yytext, yyleng, 1, yyout )) {} } while (0)
| #endif
| 
| /* Gets input and stuffs it into "buf".  number of characters read, or YY_NULL,
|  * is returned in "result".
|  */
| #ifndef YY_INPUT
| #define YY_INPUT(buf,result,max_size) \
| 	if ( YY_CURRENT_BUFFER_LVALUE->yy_is_interactive ) \
| 		{ \
| 		int c = '*'; \
| 		unsigned n; \
| 		for ( n = 0; n < max_size && \
| 			     (c = getc( yyin )) != EOF && c != '\n'; ++n ) \
| 			buf[n] = (char) c; \
| 		if ( c == '\n' ) \
| 			buf[n++] = (char) c; \
| 		if ( c == EOF && ferror( yyin ) ) \
| 			YY_FATAL_ERROR( "input in flex scanner failed" ); \
| 		result = n; \
| 		} \
| 	else \
| 		{ \
| 		errno=0; \
| 		while ( (result = fread(buf, 1, max_size, yyin))==0 && ferror(yyin)) \
| 			{ \
| 			if( errno != EINTR) \
| 				{ \
| 				YY_FATAL_ERROR( "input in flex scanner failed" ); \
| 				break; \
| 				} \
| 			errno=0; \
| 			clearerr(yyin); \
| 			} \
| 		}\
| \
| 
| #endif
| 
| /* No semi-colon after return; correct usage is to write "yyterminate();" -
|  * we don't want an extra ';' after the "return" because that will cause
|  * some compilers to complain about unreachable statements.
|  */
| #ifndef yyterminate
| #define yyterminate() return YY_NULL
| #endif
| 
| /* Number of entries by which start-condition stack grows. */
| #ifndef YY_START_STACK_INCR
| #define YY_START_STACK_INCR 25
| #endif
| 
| /* Report a fatal error. */
| #ifndef YY_FATAL_ERROR
| #define YY_FATAL_ERROR(msg) yy_fatal_error( msg )
| #endif
| 
| /* end tables serialization structures and prototypes */
| 
| /* Default declaration of generated scanner - a define so the user can
|  * easily add parameters.
|  */
| #ifndef YY_DECL
| #define YY_DECL_IS_OURS 1
| 
| extern int yylex (void);
| 
| #define YY_DECL int yylex (void)
| #endif /* !YY_DECL */
| 
| /* Code executed at the beginning of each rule, after yytext and yyleng
|  * have been set up.
|  */
| #ifndef YY_USER_ACTION
| #define YY_USER_ACTION
| #endif
| 
| /* Code executed at the end of each rule. */
| #ifndef YY_BREAK
| #define YY_BREAK break;
| #endif
| 
| #define YY_RULE_SETUP \
| 	YY_USER_ACTION
| 
| /** The main scanner function which does all the work.
|  */
| YY_DECL
| {
| 	register yy_state_type yy_current_state;
| 	register char *yy_cp, *yy_bp;
| 	register int yy_act;
|     
| #line 7 "conftest.l"
| 
| #line 657 "lex.yy.c"
| 
| 	if ( !(yy_init) )
| 		{
| 		(yy_init) = 1;
| 
| #ifdef YY_USER_INIT
| 		YY_USER_INIT;
| #endif
| 
|         /* Create the reject buffer large enough to save one state per allowed character. */
|         if ( ! (yy_state_buf) )
|             (yy_state_buf) = (yy_state_type *)yyalloc(YY_STATE_BUF_SIZE  );
|             if ( ! (yy_state_buf) )
|                 YY_FATAL_ERROR( "out of dynamic memory in yylex()" );
| 
| 		if ( ! (yy_start) )
| 			(yy_start) = 1;	/* first start state */
| 
| 		if ( ! yyin )
| 			yyin = stdin;
| 
| 		if ( ! yyout )
| 			yyout = stdout;
| 
| 		if ( ! YY_CURRENT_BUFFER ) {
| 			yyensure_buffer_stack ();
| 			YY_CURRENT_BUFFER_LVALUE =
| 				yy_create_buffer(yyin,YY_BUF_SIZE );
| 		}
| 
| 		yy_load_buffer_state( );
| 		}
| 
| 	while ( 1 )		/* loops until end-of-file is reached */
| 		{
| 		(yy_more_len) = 0;
| 		if ( (yy_more_flag) )
| 			{
| 			(yy_more_len) = (yy_c_buf_p) - (yytext_ptr);
| 			(yy_more_flag) = 0;
| 			}
| 		yy_cp = (yy_c_buf_p);
| 
| 		/* Support of yytext. */
| 		*yy_cp = (yy_hold_char);
| 
| 		/* yy_bp points to the position in yy_ch_buf of the start of
| 		 * the current run.
| 		 */
| 		yy_bp = yy_cp;
| 
| 		yy_current_state = (yy_start);
| 
| 		(yy_state_ptr) = (yy_state_buf);
| 		*(yy_state_ptr)++ = yy_current_state;
| 
| yy_match:
| 		do
| 			{
| 			register YY_CHAR yy_c = yy_ec[YY_SC_TO_UI(*yy_cp)];
| 			while ( yy_chk[yy_base[yy_current_state] + yy_c] != yy_current_state )
| 				{
| 				yy_current_state = (int) yy_def[yy_current_state];
| 				if ( yy_current_state >= 13 )
| 					yy_c = yy_meta[(unsigned int) yy_c];
| 				}
| 			yy_current_state = yy_nxt[yy_base[yy_current_state] + (unsigned int) yy_c];
| 			*(yy_state_ptr)++ = yy_current_state;
| 			++yy_cp;
| 			}
| 		while ( yy_base[yy_current_state] != 10 );
| 
| yy_find_action:
| 		yy_current_state = *--(yy_state_ptr);
| 		(yy_lp) = yy_accept[yy_current_state];
| find_rule: /* we branch to this label when backing up */
| 		for ( ; ; ) /* until we find what rule we matched */
| 			{
| 			if ( (yy_lp) && (yy_lp) < yy_accept[yy_current_state + 1] )
| 				{
| 				yy_act = yy_acclist[(yy_lp)];
| 					{
| 					(yy_full_match) = yy_cp;
| 					break;
| 					}
| 				}
| 			--yy_cp;
| 			yy_current_state = *--(yy_state_ptr);
| 			(yy_lp) = yy_accept[yy_current_state];
| 			}
| 
| 		YY_DO_BEFORE_ACTION;
| 
| do_action:	/* This label is used only to access EOF actions. */
| 
| 		switch ( yy_act )
| 	{ /* beginning of action switch */
| case 1:
| YY_RULE_SETUP
| #line 8 "conftest.l"
| { ECHO; }
| 	YY_BREAK
| case 2:
| YY_RULE_SETUP
[...]
configure: failed program was:
| /* confdefs.h */
| #define PACKAGE_NAME "Specfem3D"
| #define PACKAGE_TARNAME "Specfem3D"
| #define PACKAGE_VERSION "4.1.1"
| #define PACKAGE_STRING "Specfem3D 4.1.1"
| #define PACKAGE_BUGREPORT "see the wiki"
| #define PACKAGE_URL ""
| #define FC_FUNC(name,NAME) name ## _
| #define FC_FUNC_(name,NAME) name ## _
| #define HAVE_SCOTCH 1
| #define HAVE_STDIO_H 1
| #define HAVE_STDLIB_H 1
| #define HAVE_STRING_H 1
| #define HAVE_INTTYPES_H 1
| #define HAVE_STDINT_H 1
| #define HAVE_STRINGS_H 1
| #define HAVE_SYS_STAT_H 1
| #define HAVE_SYS_TYPES_H 1
| #define HAVE_UNISTD_H 1
| #define STDC_HEADERS 1
| #define HAVE_EMMINTRIN 1
| #define HAVE_XMMINTRIN 1
| #define HAVE_ERR 1
| /* end confdefs.h.  */
| 
| // Does the compiler advertise C++98 conformance?
| #if !defined __cplusplus || __cplusplus < 199711L
| # error "Compiler does not advertise C++98 conformance"
| #endif
| 
| // These inclusions are to reject old compilers that
| // lack the unsuffixed header files.
| #include <cstdlib>
| #include <exception>
| 
| // <cassert> and <cstring> are *not* freestanding headers in C++98.
| extern void assert (int);
| namespace std {
|   extern int strcmp (const char *, const char *);
| }
| 
| // Namespaces, exceptions, and templates were all added after "C++ 2.0".
| using std::exception;
| using std::strcmp;
| 
| namespace {
| 
| void test_exception_syntax()
| {
|   try {
|     throw "test";
|   } catch (const char *s) {
|     // Extra parentheses suppress a warning when building autoconf itself,
|     // due to lint rules shared with more typical C programs.
|     assert (!(strcmp) (s, "test"));
|   }
| }
| 
| template <typename T> struct test_template
| {
|   T const val;
|   explicit test_template(T t) : val(t) {}
|   template <typename U> T add(U u) { return static_cast<T>(u) + val; }
| };
| 
| } // anonymous namespace
| 
| int
| main (int argc, char **argv)
| {
|   int ok = 0;
|   
|   assert (argc);
|   assert (! argv[0]);
| {
|   test_exception_syntax ();
|   test_template<double> tt (2.0);
|   assert (tt.add (4) == 6.0);
|   assert (true && !false);
| }
| 
|   return ok;
| }
| 
configure:8534: result: unsupported
configure:8565: checking how to run the C++ preprocessor
configure:8587: g++ -E  conftest.cpp
configure:8587: $? = 0
configure:8603: g++ -E  conftest.cpp
conftest.cpp:25:28: error: ac_nonexistent.h: No such file or directory
configure:8603: $? = 1
configure: failed program was:
| /* confdefs.h */
| #define PACKAGE_NAME "Specfem3D"
| #define PACKAGE_TARNAME "Specfem3D"
| #define PACKAGE_VERSION "4.1.1"
| #define PACKAGE_STRING "Specfem3D 4.1.1"
| #define PACKAGE_BUGREPORT "see the wiki"
| #define PACKAGE_URL ""
| #define FC_FUNC(name,NAME) name ## _
| #define FC_FUNC_(name,NAME) name ## _
| #define HAVE_SCOTCH 1
| #define HAVE_STDIO_H 1
| #define HAVE_STDLIB_H 1
| #define HAVE_STRING_H 1
| #define HAVE_INTTYPES_H 1
| #define HAVE_STDINT_H 1
| #define HAVE_STRINGS_H 1
| #define HAVE_SYS_STAT_H 1
| #define HAVE_SYS_TYPES_H 1
| #define HAVE_UNISTD_H 1
| #define STDC_HEADERS 1
| #define HAVE_EMMINTRIN 1
| #define HAVE_XMMINTRIN 1
| #define HAVE_ERR 1
| /* end confdefs.h.  */
| #include <ac_nonexistent.h>
configure:8632: result: g++ -E
configure:8646: g++ -E  conftest.cpp
configure:8646: $? = 0
configure:8662: g++ -E  conftest.cpp
conftest.cpp:25:28: error: ac_nonexistent.h: No such file or directory
configure:8662: $? = 1
configure: failed program was:
| /* confdefs.h */
| #define PACKAGE_NAME "Specfem3D"
| #define PACKAGE_TARNAME "Specfem3D"
| #define PACKAGE_VERSION "4.1.1"
| #define PACKAGE_STRING "Specfem3D 4.1.1"
| #define PACKAGE_BUGREPORT "see the wiki"
| #define PACKAGE_URL ""
| #define FC_FUNC(name,NAME) name ## _
| #define FC_FUNC_(name,NAME) name ## _
| #define HAVE_SCOTCH 1
| #define HAVE_STDIO_H 1
| #define HAVE_STDLIB_H 1
| #define HAVE_STRING_H 1
| #define HAVE_INTTYPES_H 1
| #define HAVE_STDINT_H 1
| #define HAVE_STRINGS_H 1
| #define HAVE_SYS_STAT_H 1
| #define HAVE_SYS_TYPES_H 1
| #define HAVE_UNISTD_H 1
| #define STDC_HEADERS 1
| #define HAVE_EMMINTRIN 1
| #define HAVE_XMMINTRIN 1
| #define HAVE_ERR 1
| /* end confdefs.h.  */
| #include <ac_nonexistent.h>
configure:8723: checking for mpi.h
configure:8723: g++ -c -g -O2  -I/apps/intel/impi/5.0.3.048/intel64/include/  conftest.cpp >&5
configure:8723: $? = 0
configure:8723: result: yes
configure:9106: checking how to run the C preprocessor
configure:9132: icc -std=gnu99 -E  conftest.c
configure:9132: $? = 0
configure:9148: icc -std=gnu99 -E  conftest.c
conftest.c(25): error #2379: cannot open source file "ac_nonexistent.h"
  #include <ac_nonexistent.h>
                             ^

configure:9148: $? = 2
configure: failed program was:
| /* confdefs.h */
| #define PACKAGE_NAME "Specfem3D"
| #define PACKAGE_TARNAME "Specfem3D"
| #define PACKAGE_VERSION "4.1.1"
| #define PACKAGE_STRING "Specfem3D 4.1.1"
| #define PACKAGE_BUGREPORT "see the wiki"
| #define PACKAGE_URL ""
| #define FC_FUNC(name,NAME) name ## _
| #define FC_FUNC_(name,NAME) name ## _
| #define HAVE_SCOTCH 1
| #define HAVE_STDIO_H 1
| #define HAVE_STDLIB_H 1
| #define HAVE_STRING_H 1
| #define HAVE_INTTYPES_H 1
| #define HAVE_STDINT_H 1
| #define HAVE_STRINGS_H 1
| #define HAVE_SYS_STAT_H 1
| #define HAVE_SYS_TYPES_H 1
| #define HAVE_UNISTD_H 1
| #define STDC_HEADERS 1
| #define HAVE_EMMINTRIN 1
| #define HAVE_XMMINTRIN 1
| #define HAVE_ERR 1
| /* end confdefs.h.  */
| #include <ac_nonexistent.h>
configure:9177: result: icc -std=gnu99 -E
configure:9191: icc -std=gnu99 -E  conftest.c
configure:9191: $? = 0
configure:9207: icc -std=gnu99 -E  conftest.c
conftest.c(25): error #2379: cannot open source file "ac_nonexistent.h"
  #include <ac_nonexistent.h>
                             ^

configure:9207: $? = 2
configure: failed program was:
| /* confdefs.h */
| #define PACKAGE_NAME "Specfem3D"
| #define PACKAGE_TARNAME "Specfem3D"
| #define PACKAGE_VERSION "4.1.1"
| #define PACKAGE_STRING "Specfem3D 4.1.1"
| #define PACKAGE_BUGREPORT "see the wiki"
| #define PACKAGE_URL ""
| #define FC_FUNC(name,NAME) name ## _
| #define FC_FUNC_(name,NAME) name ## _
| #define HAVE_SCOTCH 1
| #define HAVE_STDIO_H 1
| #define HAVE_STDLIB_H 1
| #define HAVE_STRING_H 1
| #define HAVE_INTTYPES_H 1
| #define HAVE_STDINT_H 1
| #define HAVE_STRINGS_H 1
| #define HAVE_SYS_STAT_H 1
| #define HAVE_SYS_TYPES_H 1
| #define HAVE_UNISTD_H 1
| #define STDC_HEADERS 1
| #define HAVE_EMMINTRIN 1
| #define HAVE_XMMINTRIN 1
| #define HAVE_ERR 1
| /* end confdefs.h.  */
| #include <ac_nonexistent.h>
configure:12075: checking for .git/config
configure:12090: result: yes
configure:12138: building from git repository
configure:12460: creating ./config.status

## ---------------------- ##
## Running config.status. ##
## ---------------------- ##

This file was extended by Specfem3D config.status 4.1.1, which was
generated by GNU Autoconf 2.72.  Invocation command line was

  CONFIG_FILES    = 
  CONFIG_HEADERS  = 
  CONFIG_LINKS    = 
  CONFIG_COMMANDS = 
  $ ./config.status 

on newton-fe

config.status:997: creating Makefile
config.status:997: creating setup/constants.h
config.status:997: creating setup/constants_tomography.h
config.status:997: creating setup/precision.h
config.status:997: creating setup/config.fh
config.status:997: creating setup/version.fh
config.status:997: creating ./external_libs/scotch/src/Makefile.inc
config.status:997: creating DATA/Par_file
config.status:997: creating DATA/CMTSOLUTION
config.status:997: creating DATA/STATIONS
config.status:997: creating setup/config.h
config.status:1167: setup/config.h is unchanged
config.status:1181: executing bin commands
config.status:1181: executing obj commands
config.status:1181: executing DATA commands
config.status:1181: executing OUTPUT_FILES commands
config.status:1181: executing DATABASES_MPI commands
configure:13652: result: 
configure:13657: result: 
configure:13659: result: ./configure has completed and set up a default configuration to build.
configure:13661: result: 
configure:13663: result: You may wish to modify the following files before running a simulation:
configure:13665: result:   DATA/Par_file           Set parameters affecting the simulation.
configure:13667: result:   DATA/CMTSOLUTION        Set the source parameters before running the solver.
configure:13669: result:   DATA/STATIONS           Set the receiver stations before running the solver.
configure:13671: result: 

## ---------------- ##
## Cache variables. ##
## ---------------- ##

ac_cv_build=x86_64-pc-linux-gnu
ac_cv_c_compiler_gnu=yes
ac_cv_cxx_compiler_gnu=yes
ac_cv_env_ADIOS2_CONFIG_set=
ac_cv_env_ADIOS2_CONFIG_value=
ac_cv_env_ADIOS_CONFIG_set=
ac_cv_env_ADIOS_CONFIG_value=
ac_cv_env_ASDF_LIBS_set=
ac_cv_env_ASDF_LIBS_value=
ac_cv_env_CCC_set=
ac_cv_env_CCC_value=
ac_cv_env_CC_set=set
ac_cv_env_CC_value=icc
ac_cv_env_CFLAGS_set=
ac_cv_env_CFLAGS_value=
ac_cv_env_CPPFLAGS_set=
ac_cv_env_CPPFLAGS_value=
ac_cv_env_CPP_set=
ac_cv_env_CPP_value=
ac_cv_env_CUDA_FLAGS_set=
ac_cv_env_CUDA_FLAGS_value=
ac_cv_env_CUDA_INC_set=
ac_cv_env_CUDA_INC_value=
ac_cv_env_CUDA_LIB_set=
ac_cv_env_CUDA_LIB_value=
ac_cv_env_CXXCPP_set=
ac_cv_env_CXXCPP_value=
ac_cv_env_CXXFLAGS_set=
ac_cv_env_CXXFLAGS_value=
ac_cv_env_CXX_set=
ac_cv_env_CXX_value=
ac_cv_env_FCFLAGS_set=
ac_cv_env_FCFLAGS_value=
ac_cv_env_FC_set=set
ac_cv_env_FC_value=ifort
ac_cv_env_FLAGS_CHECK_set=
ac_cv_env_FLAGS_CHECK_value=
ac_cv_env_HDF5_FCFLAGS_set=
ac_cv_env_HDF5_FCFLAGS_value=
ac_cv_env_HDF5_INC_set=
ac_cv_env_HDF5_INC_value=
ac_cv_env_HDF5_LIBS_set=
ac_cv_env_HDF5_LIBS_value=
ac_cv_env_HIPCC_set=
ac_cv_env_HIPCC_value=
ac_cv_env_HIP_FLAGS_set=
ac_cv_env_HIP_FLAGS_value=
ac_cv_env_HIP_INC_set=
ac_cv_env_HIP_INC_value=
ac_cv_env_HIP_LIBS_set=
ac_cv_env_HIP_LIBS_value=
ac_cv_env_HIP_PLATFORM_set=
ac_cv_env_HIP_PLATFORM_value=
ac_cv_env_LDFLAGS_set=
ac_cv_env_LDFLAGS_value=
ac_cv_env_LIBS_set=
ac_cv_env_LIBS_value=
ac_cv_env_LOCAL_PATH_IS_ALSO_GLOBAL_set=
ac_cv_env_LOCAL_PATH_IS_ALSO_GLOBAL_value=
ac_cv_env_MPICC_set=
ac_cv_env_MPICC_value=
ac_cv_env_MPIFC_set=set
ac_cv_env_MPIFC_value=mpiifort
ac_cv_env_MPILIBS_set=
ac_cv_env_MPILIBS_value=
ac_cv_env_MPI_INC_set=set
ac_cv_env_MPI_INC_value=/apps/intel/impi/5.0.3.048/intel64/include/
ac_cv_env_NVCC_set=
ac_cv_env_NVCC_value=
ac_cv_env_OMP_FCFLAGS_set=
ac_cv_env_OMP_FCFLAGS_value=
ac_cv_env_OMP_LIB_set=
ac_cv_env_OMP_LIB_value=
ac_cv_env_SCOTCH_DIR_set=
ac_cv_env_SCOTCH_DIR_value=
ac_cv_env_SCOTCH_INCLUDEDIR_set=
ac_cv_env_SCOTCH_INCLUDEDIR_value=
ac_cv_env_SCOTCH_LIBDIR_set=
ac_cv_env_SCOTCH_LIBDIR_value=
ac_cv_env_USE_BUNDLED_SCOTCH_set=
ac_cv_env_USE_BUNDLED_SCOTCH_value=
ac_cv_env_YACC_set=
ac_cv_env_YACC_value=
ac_cv_env_YFLAGS_set=
ac_cv_env_YFLAGS_value=
ac_cv_env_build_alias_set=
ac_cv_env_build_alias_value=
ac_cv_env_host_alias_set=
ac_cv_env_host_alias_value=
ac_cv_env_target_alias_set=
ac_cv_env_target_alias_value=
ac_cv_fc_compiler_gnu=no
ac_cv_fc_dummy_main=none
ac_cv_fc_freeform=none
ac_cv_fc_libs=' -L/apps/intel/composer_xe_2015.2.164/compiler/lib/intel64 -L/apps/intel/composer_xe_2015.2.164/ipp/../compiler/lib/intel64 -L/apps/intel/composer_xe_2015.2.164/ipp/lib/intel64 -L/apps/intel/composer_xe_2015.2.164/mkl/lib/intel64 -L/apps/intel/composer_xe_2015.2.164/tbb/lib/intel64/gcc4.4 -L/data/apps/intel/composer_xe_2015.2.164/compiler/lib/intel64 -L/usr/lib/gcc/x86_64-redhat-linux/4.4.7/ -L/usr/lib/gcc/x86_64-redhat-linux/4.4.7/../../../../lib64 -L/usr/lib/gcc/x86_64-redhat-linux/4.4.7/../../../../lib64/ -L/lib/../lib64 -L/lib/../lib64/ -L/usr/lib/../lib64 -L/usr/lib/../lib64/ -L/apps/intel/composer_xe_2015.2.164/compiler/lib/intel64/ -L/apps/intel/composer_xe_2015.2.164/ipp/../compiler/lib/intel64/ -L/apps/intel/composer_xe_2015.2.164/ipp/lib/intel64/ -L/apps/intel/composer_xe_2015.2.164/mkl/lib/intel64/ -L/apps/intel/composer_xe_2015.2.164/tbb/lib/intel64/gcc4.4/ -L/usr/lib/gcc/x86_64-redhat-linux/4.4.7/../../../ -L/lib64 -L/lib/ -L/usr/lib64 -L/usr/lib -lifport -lifcore -limf -lsvml -lm -lipgo -lirc -lpthread -lirc_s -ldl'
ac_cv_fc_mangling='lower case, underscore, no extra underscore'
ac_cv_fc_module_ext=mod
ac_cv_fc_module_flag=-I
ac_cv_fc_module_output_flag='-mod '
ac_cv_fc_pp_define=-D
ac_cv_fc_pp_srcext_F90=none
ac_cv_fc_pp_srcext_F=none
ac_cv_fc_srcext_f90=none
ac_cv_file__git_config=yes
ac_cv_fortran_dummy_main=none
ac_cv_header_emmintrin_h=yes
ac_cv_header_err_h=yes
ac_cv_header_inttypes_h=yes
ac_cv_header_mpi_h=yes
ac_cv_header_stdint_h=yes
ac_cv_header_stdio_h=yes
ac_cv_header_stdlib_h=yes
ac_cv_header_string_h=yes
ac_cv_header_strings_h=yes
ac_cv_header_sys_stat_h=yes
ac_cv_header_sys_types_h=yes
ac_cv_header_unistd_h=yes
ac_cv_header_xmmintrin_h=yes
ac_cv_host=x86_64-pc-linux-gnu
ac_cv_lib_lex='not found'
ac_cv_lib_scotch_scotchfarchinit_=no
ac_cv_objext=o
ac_cv_prog_CPP='icc -std=gnu99 -E'
ac_cv_prog_CXXCPP='g++ -E'
ac_cv_prog_LEX=flex
ac_cv_prog_YACC='bison -y'
ac_cv_prog_ac_ct_CC=icc
ac_cv_prog_ac_ct_CXX=g++
ac_cv_prog_cc_c11=no
ac_cv_prog_cc_c99=-std=gnu99
ac_cv_prog_cc_g=yes
ac_cv_prog_cc_stdc=-std=gnu99
ac_cv_prog_cxx_cxx11=no
ac_cv_prog_cxx_cxx98=no
ac_cv_prog_cxx_g=yes
ac_cv_prog_fc_g=yes
ac_cv_prog_fc_v=-v
ac_cv_prog_lex_root=lex.yy

## ----------------- ##
## Output variables. ##
## ----------------- ##

ADIOS2_CFLAGS=''
ADIOS2_CLIBS=''
ADIOS2_CONFIG=''
ADIOS2_FCFLAGS=''
ADIOS2_LIBS=''
ADIOS_CONFIG=''
ADIOS_FCFLAGS=''
ADIOS_LIBS=''
ASDF_LIBS=''
CC='icc -std=gnu99'
CFLAGS='-g -O2'
COND_ADIOS2_FALSE=''
COND_ADIOS2_TRUE='#'
COND_ADIOS_FALSE=''
COND_ADIOS_TRUE='#'
COND_ASDF_FALSE=''
COND_ASDF_TRUE='#'
COND_CUDA10_FALSE=''
COND_CUDA10_TRUE='#'
COND_CUDA11_FALSE=''
COND_CUDA11_TRUE='#'
COND_CUDA12_FALSE=''
COND_CUDA12_TRUE='#'
COND_CUDA4_FALSE=''
COND_CUDA4_TRUE='#'
COND_CUDA5_FALSE=''
COND_CUDA5_TRUE='#'
COND_CUDA6_FALSE=''
COND_CUDA6_TRUE='#'
COND_CUDA7_FALSE=''
COND_CUDA7_TRUE='#'
COND_CUDA8_FALSE=''
COND_CUDA8_TRUE='#'
COND_CUDA9_FALSE=''
COND_CUDA9_TRUE='#'
COND_CUDA_FALSE=''
COND_CUDA_PLUS_FALSE=''
COND_CUDA_PLUS_TRUE='#'
COND_CUDA_TRUE='#'
COND_DEBUG_FALSE=''
COND_DEBUG_TRUE='#'
COND_HDF5_FALSE=''
COND_HDF5_TRUE='#'
COND_HIP_CUDA10_FALSE=''
COND_HIP_CUDA10_TRUE='#'
COND_HIP_CUDA11_FALSE=''
COND_HIP_CUDA11_TRUE='#'
COND_HIP_CUDA12_FALSE=''
COND_HIP_CUDA12_TRUE='#'
COND_HIP_CUDA5_FALSE=''
COND_HIP_CUDA5_TRUE='#'
COND_HIP_CUDA6_FALSE=''
COND_HIP_CUDA6_TRUE='#'
COND_HIP_CUDA7_FALSE=''
COND_HIP_CUDA7_TRUE='#'
COND_HIP_CUDA8_FALSE=''
COND_HIP_CUDA8_TRUE='#'
COND_HIP_CUDA9_FALSE=''
COND_HIP_CUDA9_TRUE='#'
COND_HIP_FALSE=''
COND_HIP_MI100_FALSE=''
COND_HIP_MI100_TRUE='#'
COND_HIP_MI250_FALSE=''
COND_HIP_MI250_TRUE='#'
COND_HIP_MI25_FALSE=''
COND_HIP_MI25_TRUE='#'
COND_HIP_MI50_FALSE=''
COND_HIP_MI50_TRUE='#'
COND_HIP_MI8_FALSE=''
COND_HIP_MI8_TRUE='#'
COND_HIP_PLATFORM_AMD_FALSE=''
COND_HIP_PLATFORM_AMD_TRUE='#'
COND_HIP_PLATFORM_CPU_FALSE=''
COND_HIP_PLATFORM_CPU_TRUE='#'
COND_HIP_PLATFORM_NVIDIA_FALSE=''
COND_HIP_PLATFORM_NVIDIA_TRUE='#'
COND_HIP_TRUE='#'
COND_MPI_FALSE='#'
COND_MPI_TRUE=''
COND_OMP_FALSE=''
COND_OMP_TRUE='#'
COND_SCOTCH_FALSE='#'
COND_SCOTCH_TRUE=''
COND_VECTORIZATION_FALSE=''
COND_VECTORIZATION_TRUE='#'
COND_VTK_FALSE=''
COND_VTK_TRUE='#'
CONFIGURE_FLAGS='FC=ifort FCFLAGS=-g'
CPP='icc -std=gnu99 -E'
CPPFLAGS=''
CUDA_CPPFLAGS=''
CUDA_FLAGS=''
CUDA_INC=''
CUDA_LDFLAGS=''
CUDA_LIB=''
CUDA_LIBS=''
CUSTOM_MPI_TYPE='MPI_REAL'
CUSTOM_REAL='SIZE_REAL'
CXX='g++'
CXXCPP='g++ -E'
CXXFLAGS='-g -O2'
DEFS='-DHAVE_CONFIG_H'
ECHO_C=''
ECHO_N='-n'
ECHO_T=''
EXEEXT=''
FC='ifort'
FCENV=''
FCFLAGS='-g'
FCFLAGS_F90=''
FCFLAGS_F=''
FCFLAGS_f90='-mod ./obj -I./obj -I. '
FCLIBS=' -L/apps/intel/composer_xe_2015.2.164/compiler/lib/intel64 -L/apps/intel/composer_xe_2015.2.164/ipp/../compiler/lib/intel64 -L/apps/intel/composer_xe_2015.2.164/ipp/lib/intel64 -L/apps/intel/composer_xe_2015.2.164/mkl/lib/intel64 -L/apps/intel/composer_xe_2015.2.164/tbb/lib/intel64/gcc4.4 -L/data/apps/intel/composer_xe_2015.2.164/compiler/lib/intel64 -L/usr/lib/gcc/x86_64-redhat-linux/4.4.7/ -L/usr/lib/gcc/x86_64-redhat-linux/4.4.7/../../../../lib64 -L/usr/lib/gcc/x86_64-redhat-linux/4.4.7/../../../../lib64/ -L/lib/../lib64 -L/lib/../lib64/ -L/usr/lib/../lib64 -L/usr/lib/../lib64/ -L/apps/intel/composer_xe_2015.2.164/compiler/lib/intel64/ -L/apps/intel/composer_xe_2015.2.164/ipp/../compiler/lib/intel64/ -L/apps/intel/composer_xe_2015.2.164/ipp/lib/intel64/ -L/apps/intel/composer_xe_2015.2.164/mkl/lib/intel64/ -L/apps/intel/composer_xe_2015.2.164/tbb/lib/intel64/gcc4.4/ -L/usr/lib/gcc/x86_64-redhat-linux/4.4.7/../../../ -L/lib64 -L/lib/ -L/usr/lib64 -L/usr/lib -lifport -lifcore -limf -lsvml -lm -lipgo -lirc -lpthread -lirc_s -ldl'
FC_DEFINE='-D'
FC_MODDIR='./obj'
FC_MODEXT='mod'
FC_MODINC='-I'
FC_MODOUT='-mod ${ac_empty}'
FLAGS_CHECK='-xHost -fpe0 -ftz -assume buffered_io -assume byterecl -align sequence -std08 -diag-disable 6477 -implicitnone -gen-interfaces -warn all,noexternal -O3 -check nobounds'
GIT_COMMIT_VERSION='97749062df8580b2da227f7660079220a20539cd'
GIT_DATE_VERSION='2025-05-13 20:17:44 +0200'
GIT_PACKAGE_VERSION='v4.1.1-201-g9774906'
HDF5_FCFLAGS=''
HDF5_INC=''
HDF5_INCLUDES=''
HDF5_LIBS=''
HIPCC=''
HIPCC_PROG=''
HIPCONFIG_PROG=''
HIP_CPPFLAGS=''
HIP_FLAGS=''
HIP_INC=''
HIP_LIBS=''
HIP_PLATFORM=''
LDFLAGS=''
LEX=':'
LEXLIB=''
LEX_OUTPUT_ROOT='lex.yy'
LIBOBJS=''
LIBS=''
LOCAL_PATH_IS_ALSO_GLOBAL='true'
LTLIBOBJS=''
MPICC='mpicc'
MPIFC='mpiifort'
MPILIBS=''
MPI_INC='/apps/intel/impi/5.0.3.048/intel64/include/'
MPI_INCLUDES=' -I/apps/intel/impi/5.0.3.048/intel64/include/'
NVCC=''
NVCC_PROG=''
OBJEXT='o'
OMP_FCFLAGS='-qopenmp'
OMP_LIB=''
PACKAGE_BUGREPORT='see the wiki'
PACKAGE_NAME='Specfem3D'
PACKAGE_STRING='Specfem3D 4.1.1'
PACKAGE_TARNAME='Specfem3D'
PACKAGE_URL=''
PACKAGE_VERSION='4.1.1'
PATH_SEPARATOR=':'
PTHREAD_CC='icc -std=gnu99'
PTHREAD_CFLAGS='-pthread'
PTHREAD_LIBS=''
SCOTCH_DIR='./external_libs/scotch'
SCOTCH_INCLUDEDIR='./external_libs/scotch/include'
SCOTCH_LIBDIR='./external_libs/scotch/lib'
SHELL='/bin/sh'
USE_BUNDLED_SCOTCH='1'
VTK_INCLUDES=''
VTK_LDFLAGS=''
VTK_LIBS=''
VTK_MAJOR=''
YACC='bison -y'
YFLAGS=''
ac_ct_CC='icc'
ac_ct_CXX='g++'
ac_ct_FC=''
ac_empty=''
acx_pthread_config=''
bindir='${exec_prefix}/bin'
build='x86_64-pc-linux-gnu'
build_alias=''
build_cpu='x86_64'
build_os='linux-gnu'
build_vendor='pc'
datadir='${datarootdir}'
datarootdir='${prefix}/share'
docdir='${datarootdir}/doc/${PACKAGE_TARNAME}'
dvidir='${docdir}'
exec_prefix='${prefix}'
host='x86_64-pc-linux-gnu'
host_alias=''
host_cpu='x86_64'
host_os='linux-gnu'
host_vendor='pc'
htmldir='${docdir}'
includedir='${prefix}/include'
infodir='${datarootdir}/info'
libdir='${exec_prefix}/lib'
libexecdir='${exec_prefix}/libexec'
localedir='${datarootdir}/locale'
localstatedir='${prefix}/var'
mandir='${datarootdir}/man'
oldincludedir='/usr/include'
pdfdir='${docdir}'
prefix='/usr/local'
program_transform_name='s,x,x,'
psdir='${docdir}'
runstatedir='${localstatedir}/run'
sbindir='${exec_prefix}/sbin'
sharedstatedir='${prefix}/com'
srcdir='.'
sysconfdir='${prefix}/etc'
target_alias=''

## ----------- ##
## confdefs.h. ##
## ----------- ##

/* confdefs.h */
#define PACKAGE_NAME "Specfem3D"
#define PACKAGE_TARNAME "Specfem3D"
#define PACKAGE_VERSION "4.1.1"
#define PACKAGE_STRING "Specfem3D 4.1.1"
#define PACKAGE_BUGREPORT "see the wiki"
#define PACKAGE_URL ""
#define FC_FUNC(name,NAME) name ## _
#define FC_FUNC_(name,NAME) name ## _
#define HAVE_SCOTCH 1
#define HAVE_STDIO_H 1
#define HAVE_STDLIB_H 1
#define HAVE_STRING_H 1
#define HAVE_INTTYPES_H 1
#define HAVE_STDINT_H 1
#define HAVE_STRINGS_H 1
#define HAVE_SYS_STAT_H 1
#define HAVE_SYS_TYPES_H 1
#define HAVE_UNISTD_H 1
#define STDC_HEADERS 1
#define HAVE_EMMINTRIN 1
#define HAVE_XMMINTRIN 1
#define HAVE_ERR 1
#define SPECFEM3D_RELEASE_VERSION 0
#define SPECFEM3D_GIT_REVISION "v4.1.1-201-g9774906"
#define SPECFEM3D_GIT_HASH "97749062df8580b2da227f7660079220a20539cd"
#define SPECFEM3D_GIT_DATE "2025-05-13 20:17:44 +0200"
#define SPECFEM3D_GIT_BRANCH "devel"
#define SPECFEM3D_VERSION "4.1.1"

configure: exit 0
